DB00133
 OpenBabel03181420362D

  7  6  0  0  1  0  0  0  0  0999 V2000
    2.0930   -0.9818    0.0000 O   0  0  0  0  0  0  0  0  0  0  0  0
    4.2365    0.2558    0.0000 O   0  0  0  0  0  0  0  0  0  0  0  0
    3.5220    1.4933    0.0000 O   0  0  0  0  0  0  0  0  0  0  0  0
    2.0930    0.6683    0.0000 N   0  0  0  0  0  0  0  0  0  0  0  0
    2.8075    0.2558    0.0000 C   0  0  1  0  0  0  0  0  0  0  0  0
    2.8075   -0.5693    0.0000 C   0  0  0  0  0  0  0  0  0  0  0  0
    3.5220    0.6683    0.0000 C   0  0  0  0  0  0  0  0  0  0  0  0
  1  6  1  0  0  0  0
  2  7  1  0  0  0  0
  3  7  2  0  0  0  0
  5  4  1  6  0  0  0
  5  6  1  0  0  0  0
  5  7  1  0  0  0  0
M  END
> <DRUGBANK_ID>
DB00133

> <DRUG_GROUPS>
approved; nutraceutical

> <GENERIC_NAME>
L-Serine

> <SYNONYMS>
(-)-Serine; (S)-2-Amino-3-hydroxypropanoic acid; (S)-a-Amino-b-hydroxypropionic acid; (S)-Serine; 2-Amino-3-hydroxypropionic acid; 3-Hydroxyalanine; b-Hydroxy-L-alanine; L-(-)-Serine; L-3-Hydroxy-2-aminopropionic acid; L-Ser; Serine

> <CHEMICAL_FORMULA>
C3H7NO3

> <MOLECULAR_WEIGHT>
105.0926

> <EXACT_MASS>
105.042593095

> <IUPAC_NAME>
(2S)-2-amino-3-hydroxypropanoic acid

> <INCHI_IDENTIFIER>
InChI=1S/C3H7NO3/c4-2(1-5)3(6)7/h2,5H,1,4H2,(H,6,7)/t2-/m0/s1

> <INCHI_KEY>
InChIKey=MTCFGRXMJLQNBG-REOHCLBHSA-N

> <SMILES>
N[C@@H](CO)C(O)=O

> <JCHEM_ACCEPTOR_COUNT>
4

> <JCHEM_DONOR_COUNT>
3

> <JCHEM_ACIDIC_PKA>
2.03

> <JCHEM_BASIC_PKA>
8.93

> <JCHEM_PHYSIOLOGICAL_CHARGE>
0

> <ALOGPS_LOGP>
-3.4

> <JCHEM_LOGP>
-3.9

> <ALOGPS_LOGS>
0.66

> <JCHEM_POLARIZABILITY>
9.43

> <JCHEM_POLAR_SURFACE_AREA>
83.55

> <JCHEM_REFRACTIVITY>
22.04

> <JCHEM_ROTATABLE_BOND_COUNT>
2

> <ALOGPS_SOLUBILITY>
4.80e+02 g/l __ __ 

$$$$
