DB00129
 OpenBabel03181420362D

  9  8  0  0  1  0  0  0  0  0999 V2000
    4.9509    0.8745    0.0000 O   0  0  0  0  0  0  0  0  0  0  0  0
    4.2365    2.1120    0.0000 O   0  0  0  0  0  0  0  0  0  0  0  0
    2.8075    1.2870    0.0000 N   0  0  0  0  0  0  0  0  0  0  0  0
    2.0930   -1.6005    0.0000 N   0  0  0  0  0  0  0  0  0  0  0  0
    3.5220    0.0495    0.0000 C   0  0  0  0  0  0  0  0  0  0  0  0
    2.8075   -0.3630    0.0000 C   0  0  0  0  0  0  0  0  0  0  0  0
    3.5220    0.8745    0.0000 C   0  0  1  0  0  0  0  0  0  0  0  0
    2.8075   -1.1880    0.0000 C   0  0  0  0  0  0  0  0  0  0  0  0
    4.2365    1.2870    0.0000 C   0  0  0  0  0  0  0  0  0  0  0  0
  1  9  1  0  0  0  0
  2  9  2  0  0  0  0
  4  8  1  0  0  0  0
  5  6  1  0  0  0  0
  5  7  1  0  0  0  0
  6  8  1  0  0  0  0
  7  3  1  6  0  0  0
  7  9  1  0  0  0  0
M  END
> <DRUGBANK_ID>
DB00129

> <DRUG_GROUPS>
approved; nutraceutical

> <GENERIC_NAME>
L-Ornithine

> <SYNONYMS>
(S)-2,5-Diaminopentanoate; (S)-2,5-Diaminopentanoic acid; (S)-2,5-diaminovaleric acid; (S)-ornithine

> <BRANDS>
OKG

> <CHEMICAL_FORMULA>
C5H12N2O2

> <MOLECULAR_WEIGHT>
132.161

> <EXACT_MASS>
132.089877638

> <IUPAC_NAME>
(2S)-2,5-diaminopentanoic acid

> <INCHI_IDENTIFIER>
InChI=1S/C5H12N2O2/c6-3-1-2-4(7)5(8)9/h4H,1-3,6-7H2,(H,8,9)/t4-/m0/s1

> <INCHI_KEY>
InChIKey=AHLPHDHHMVZTML-BYPYZUCNSA-N

> <SMILES>
NCCC[C@H](N)C(O)=O

> <JCHEM_ACCEPTOR_COUNT>
4

> <JCHEM_DONOR_COUNT>
3

> <JCHEM_ACIDIC_PKA>
2.67

> <JCHEM_BASIC_PKA>
10.29

> <JCHEM_PHYSIOLOGICAL_CHARGE>
1

> <ALOGPS_LOGP>
-3.6

> <JCHEM_LOGP>
-3.7

> <ALOGPS_LOGS>
0.11

> <JCHEM_POLARIZABILITY>
13.77

> <JCHEM_POLAR_SURFACE_AREA>
89.34

> <JCHEM_REFRACTIVITY>
33.21

> <JCHEM_ROTATABLE_BOND_COUNT>
4

> <ALOGPS_SOLUBILITY>
1.72e+02 g/l __ __ 

$$$$
