DB00525
 OpenBabel03181418042D

 22 24  0  0  0  0  0  0  0  0999 V2000
    5.2224    0.8107    0.0000 S   0  0  0  0  0  0  0  0  0  0  0  0
    5.9370   -0.4268    0.0000 O   0  0  0  0  0  0  0  0  0  0  0  0
    4.5080   -0.4268    0.0000 N   0  0  0  0  0  0  0  0  0  0  0  0
    8.0804   -0.0143    0.0000 C   0  0  0  0  0  0  0  0  0  0  0  0
    8.0804    0.8107    0.0000 C   0  0  0  0  0  0  0  0  0  0  0  0
    3.7935   -0.0143    0.0000 C   0  0  0  0  0  0  0  0  0  0  0  0
    6.6515   -0.0143    0.0000 C   0  0  0  0  0  0  0  0  0  0  0  0
    7.3659   -0.4268    0.0000 C   0  0  0  0  0  0  0  0  0  0  0  0
    3.0791   -0.4268    0.0000 C   0  0  0  0  0  0  0  0  0  0  0  0
    2.3645   -0.0143    0.0000 C   0  0  0  0  0  0  0  0  0  0  0  0
    7.3659    1.2233    0.0000 C   0  0  0  0  0  0  0  0  0  0  0  0
    6.6515    0.8107    0.0000 C   0  0  0  0  0  0  0  0  0  0  0  0
    8.8180   -0.4554    0.0000 C   0  0  0  0  0  0  0  0  0  0  0  0
    3.7935    0.8107    0.0000 C   0  0  0  0  0  0  0  0  0  0  0  0
    8.8180    1.2518    0.0000 C   0  0  0  0  0  0  0  0  0  0  0  0
    5.2224   -0.0143    0.0000 C   0  0  0  0  0  0  0  0  0  0  0  0
    2.3645    0.8107    0.0000 C   0  0  0  0  0  0  0  0  0  0  0  0
    3.0791    1.2233    0.0000 C   0  0  0  0  0  0  0  0  0  0  0  0
    4.5080   -1.2518    0.0000 C   0  0  0  0  0  0  0  0  0  0  0  0
    9.5654   -0.0314    0.0000 C   0  0  0  0  0  0  0  0  0  0  0  0
    9.5654    0.8279    0.0000 C   0  0  0  0  0  0  0  0  0  0  0  0
    1.6500   -0.4268    0.0000 C   0  0  0  0  0  0  0  0  0  0  0  0
  1 16  2  0  0  0  0
  2  7  1  0  0  0  0
  2 16  1  0  0  0  0
  3  6  1  0  0  0  0
  3 16  1  0  0  0  0
  3 19  1  0  0  0  0
  4  5  1  0  0  0  0
  4  8  1  0  0  0  0
  4 13  2  0  0  0  0
  5 11  1  0  0  0  0
  5 15  2  0  0  0  0
  6  9  1  0  0  0  0
  6 14  2  0  0  0  0
  7  8  2  0  0  0  0
  7 12  1  0  0  0  0
  9 10  2  0  0  0  0
 10 17  1  0  0  0  0
 10 22  1  0  0  0  0
 11 12  2  0  0  0  0
 13 20  1  0  0  0  0
 14 18  1  0  0  0  0
 15 21  1  0  0  0  0
 17 18  2  0  0  0  0
 20 21  2  0  0  0  0
M  END
> <DRUGBANK_ID>
DB00525

> <DRUG_GROUPS>
approved

> <GENERIC_NAME>
Tolnaftate

> <BRANDS>
2-Naphthyl N-methyl-N-(3-tolyl)thionocarbamate; Aftate; Aftate for athlete's foot aerosol spray liquid; Aftate for athlete's foot aerosol spray powder; Aftate for athlete's foot gel; Aftate for athlete's foot sprinkle powder; Aftate for jock itch aerosol spray powder; Aftate for jock itch gel; Aftate for jock itch sprinkle powder; Carbanilic acid, M,N-dimethylthio-, O-2-naphthyl ester; Carbanilic acid, N,M-dimethylthio-, O-2-naphthyl ester; Chinofungin; Dermoxin; Dr. Scholl's athlete's foot spray; Dungistop; Focusan; Fungistop; Genaspore cream; Hi-alarzin; Hi-alazin; M,N-Dimethylthiocarbanilic acid O-2-naphthyl ester; Naphthiomate T; Naphthiomate-t; NP-27 Cream; NP-27 Powder; NP-27 Solution; NP-27 Spray Powder; o-(2-Naphthyl) methyl(3-methylphenyl)thiocarbamate; O-2-Naphthyl M,N-dimethylthiocarbanilate; O-2-Naphthyl N,N-dimethylthiocarbanilate; Phytoderm; Pitrex; Pitrex cream; Prestwick_472; Separin; Separin (TN); Sorgoa; Sporiline; Timoped; Tinactin; Tinactin (TN); Tinactin aerosol liquid; Tinactin aerosol powder; Tinactin antifungal deodorant powder aerosol; Tinactin cream; Tinactin jock itch aerosol powder; Tinactin jock itch cream; Tinactin jock itch spray powder; Tinactin plus aerosol powder; Tinactin plus powder; Tinactin powder; Tinactin solution; Tinaderm; Tinavet; Tinavet (veterinary); Ting antifungal cream; Ting antifungal powder; Ting antifungal spray liquid; Ting antifungal spray powder; Ting products; Tniaderm; Tolnaftate (JP14/USP); Tolnaftate (JP15/USP); Tolnaftate [usan:ban:inn:jan]; Tolnaftate(USAN); Tolnaftato [DCIT]; Tolnaftato [inn-spanish]; Tolnaftatum [inn-latin]; Tolnaphthate; Tolsanil; Tonoftal; Tritin; Zeasorb-AF powder

> <CHEMICAL_FORMULA>
C19H17NOS

> <MOLECULAR_WEIGHT>
307.409

> <EXACT_MASS>
307.103084861

> <IUPAC_NAME>
N-methyl-N-(3-methylphenyl)-1-(naphthalen-2-yloxy)methanethioamide

> <INCHI_IDENTIFIER>
InChI=1S/C19H17NOS/c1-14-6-5-9-17(12-14)20(2)19(22)21-18-11-10-15-7-3-4-8-16(15)13-18/h3-13H,1-2H3

> <INCHI_KEY>
InChIKey=FUSNMLFNXJSCDI-UHFFFAOYSA-N

> <SMILES>
CN(C(=S)OC1=CC2=CC=CC=C2C=C1)C1=CC=CC(C)=C1

> <JCHEM_ACCEPTOR_COUNT>
1

> <JCHEM_DONOR_COUNT>
0

> <JCHEM_BASIC_PKA>
0.075

> <JCHEM_PHYSIOLOGICAL_CHARGE>
0

> <ALOGPS_LOGP>
4.87

> <JCHEM_LOGP>
5.75

> <ALOGPS_LOGS>
-5.8

> <JCHEM_POLARIZABILITY>
34.22

> <JCHEM_POLAR_SURFACE_AREA>
12.47

> <JCHEM_REFRACTIVITY>
94.92

> <JCHEM_ROTATABLE_BOND_COUNT>
3

> <ALOGPS_SOLUBILITY>
5.46e-04 g/l __ __ 

$$$$
