DB00161
 OpenBabel03181420362D

  8  7  0  0  1  0  0  0  0  0999 V2000
   14.6656  -11.2582    0.0000 C   0  0  1  0  0  0  0  0  0  0  0  0
   15.3836  -10.8475    0.0000 C   0  0  0  0  0  0  0  0  0  0  0  0
   13.9476  -10.8372    0.0000 C   0  0  0  0  0  0  0  0  0  0  0  0
   14.6622  -12.0867    0.0000 N   0  0  0  0  0  0  0  0  0  0  0  0
   16.0948  -11.2651    0.0000 C   0  0  0  0  0  0  0  0  0  0  0  0
   15.3871  -10.0225    0.0000 C   0  0  0  0  0  0  0  0  0  0  0  0
   13.2330  -11.2479    0.0000 O   0  0  0  0  0  0  0  0  0  0  0  0
   13.9510  -10.0155    0.0000 O   0  0  0  0  0  0  0  0  0  0  0  0
  1  2  1  6  0  0  0
  1  3  1  0  0  0  0
  1  4  1  0  0  0  0
  2  5  1  0  0  0  0
  2  6  1  0  0  0  0
  3  7  1  0  0  0  0
  3  8  2  0  0  0  0
M  END
> <DRUGBANK_ID>
DB00161

> <DRUG_GROUPS>
approved; nutraceutical

> <GENERIC_NAME>
L-Valine

> <SYNONYMS>
(2S)-2-Amino-3-methylbutanoic acid; (S)-2-Amino-3-methylbutanoic acid; (S)-2-Amino-3-methylbutyric acid; (S)-a-Amino-b-methylbutyric acid; (S)-Valine; 2-Amino-3-methylbutanoic acid; 2-Amino-3-methylbutyric acid; L-(+)-a-Aminoisovaleric acid; L-a-Amino-b-methylbutyric acid; Valine

> <CHEMICAL_FORMULA>
C5H11NO2

> <MOLECULAR_WEIGHT>
117.1463

> <EXACT_MASS>
117.078978601

> <IUPAC_NAME>
(2S)-2-amino-3-methylbutanoic acid

> <INCHI_IDENTIFIER>
InChI=1S/C5H11NO2/c1-3(2)4(6)5(7)8/h3-4H,6H2,1-2H3,(H,7,8)/t4-/m0/s1

> <INCHI_KEY>
InChIKey=KZSNJWFQEVHDMF-BYPYZUCNSA-N

> <SMILES>
CC(C)[C@H](N)C(O)=O

> <JCHEM_ACCEPTOR_COUNT>
3

> <JCHEM_DONOR_COUNT>
2

> <JCHEM_ACIDIC_PKA>
2.72

> <JCHEM_BASIC_PKA>
9.6

> <JCHEM_PHYSIOLOGICAL_CHARGE>
0

> <ALOGPS_LOGP>
-2.3

> <JCHEM_LOGP>
-2

> <ALOGPS_LOGS>
0.26

> <JCHEM_POLARIZABILITY>
12.19

> <JCHEM_POLAR_SURFACE_AREA>
63.32

> <JCHEM_REFRACTIVITY>
29.49

> <JCHEM_ROTATABLE_BOND_COUNT>
2

> <ALOGPS_SOLUBILITY>
2.14e+02 g/l __ __ 

$$$$
