DB00162
 OpenBabel03181420362D

 21 21  0  0  0  0  0  0  0  0999 V2000
    2.0930    0.0000    0.0000 O   0  0  0  0  0  0  0  0  0  0  0  0
    9.9524    0.4125    0.0000 C   0  0  0  0  0  0  0  0  0  0  0  0
   10.6668    0.0000    0.0000 C   0  0  0  0  0  0  0  0  0  0  0  0
   10.6668   -0.8250    0.0000 C   0  0  0  0  0  0  0  0  0  0  0  0
    9.2379    0.0000    0.0000 C   0  0  0  0  0  0  0  0  0  0  0  0
    9.9524   -1.2375    0.0000 C   0  0  0  0  0  0  0  0  0  0  0  0
    9.2379   -0.8250    0.0000 C   0  0  0  0  0  0  0  0  0  0  0  0
   10.3649    1.1270    0.0000 C   0  0  0  0  0  0  0  0  0  0  0  0
    9.5398    1.1270    0.0000 C   0  0  0  0  0  0  0  0  0  0  0  0
    8.5234    0.4125    0.0000 C   0  0  0  0  0  0  0  0  0  0  0  0
    8.5234   -1.2375    0.0000 C   0  0  0  0  0  0  0  0  0  0  0  0
    7.8089    0.0000    0.0000 C   0  0  0  0  0  0  0  0  0  0  0  0
    7.0944    0.4125    0.0000 C   0  0  0  0  0  0  0  0  0  0  0  0
    7.0944    1.2375    0.0000 C   0  0  0  0  0  0  0  0  0  0  0  0
    6.3799    0.0000    0.0000 C   0  0  0  0  0  0  0  0  0  0  0  0
    5.6655    0.4125    0.0000 C   0  0  0  0  0  0  0  0  0  0  0  0
    4.9509    0.0000    0.0000 C   0  0  0  0  0  0  0  0  0  0  0  0
    4.2365    0.4125    0.0000 C   0  0  0  0  0  0  0  0  0  0  0  0
    4.2365    1.2375    0.0000 C   0  0  0  0  0  0  0  0  0  0  0  0
    3.5220    0.0000    0.0000 C   0  0  0  0  0  0  0  0  0  0  0  0
    2.8075    0.4125    0.0000 C   0  0  0  0  0  0  0  0  0  0  0  0
  1 21  1  0  0  0  0
  2  3  1  0  0  0  0
  2  5  1  0  0  0  0
  2  8  1  0  0  0  0
  2  9  1  0  0  0  0
  3  4  1  0  0  0  0
  4  6  1  0  0  0  0
  5  7  2  0  0  0  0
  5 10  1  0  0  0  0
  6  7  1  0  0  0  0
  7 11  1  0  0  0  0
 10 12  2  3  0  0  0
 12 13  1  0  0  0  0
 13 14  1  0  0  0  0
 13 15  2  3  0  0  0
 15 16  1  0  0  0  0
 16 17  2  3  0  0  0
 17 18  1  0  0  0  0
 18 19  1  0  0  0  0
 18 20  2  3  0  0  0
 20 21  1  0  0  0  0
M  END
> <DRUGBANK_ID>
DB00162

> <DRUG_GROUPS>
approved; nutraceutical

> <GENERIC_NAME>
Vitamin A

> <SYNONYMS>
[11,12-3H]-Retinol; all-trans-retinol; All-trans-Retinyl alcohol; all-trans-Vitamin A; All-trans-Vitamin A alcohol; all-trans-Vitamin A1; beta-Retinol; Retin-11,12-t2-ol (9CI); Retinol; trans-Retinol; trans-Vitamin A alcohol; Vitamin A (Feed); Vitamin A alcohol; Vitamin A cryst; Vitamin A Palmitate; Vitamin A Solubilized; Vitamin A1; Vitamin A1 alcohol

> <BRANDS>
A-Mulsal; A-Sol; A-Vi-Pel; A-Vitan; Acon; Afaxin; Agiolan; Agoncal; Alcovit A; alin; Alphalin; Alphasterol; Anatola; Anatola A; Anti-Infective vitamin; Antixerophthalmic vitamin; Aoral; Apexol; Apostavit; Aquasol A Parenteral; Aquasynth; asterol; Atars; Atav; Avibon; Avita; Avitol; Axerol; Axerophthol; Bentavit A; Biosterol; Chocola A; Cylasphere; Del-VI-A; Disatabs Tabs; Dofsol; Dohyfral A; Epiteliol; Hi-A-Vita; Homagenets Aoral; Homagenets aorl; Lard Factor; Mvc Plus; Myvpack; Nio-A-Let; Oleovitamin A; Ophthalamin; Plivit A; Prepalin; Retrovitamin A; Ro-a-vit; Sehkraft A; Solu-A; Super A; Testavol; Testavol S; Thalasphere; tROL; Vaflol; Vafol; Veroftal; Vi-a; Vi-Alpha; Vi-Dom-A; Vio-A; Vitavel A; Vitpex; Vogan; Vogan-Neu; Vogan-nu; Zineb; Zinosan N

> <CHEMICAL_FORMULA>
C20H30O

> <MOLECULAR_WEIGHT>
286.4516

> <EXACT_MASS>
286.229665582

> <IUPAC_NAME>
3,7-dimethyl-9-(2,6,6-trimethylcyclohex-1-en-1-yl)nona-2,4,6,8-tetraen-1-ol

> <INCHI_IDENTIFIER>
InChI=1S/C20H30O/c1-16(8-6-9-17(2)13-15-21)11-12-19-18(3)10-7-14-20(19,4)5/h6,8-9,11-13,21H,7,10,14-15H2,1-5H3/b9-6+,12-11+,16-8+,17-13+

> <INCHI_KEY>
InChIKey=FPIPGXGPPPQFEQ-OVSJKPMPSA-N

> <SMILES>
CC(=CCO)C=CC=C(C)C=CC1=C(C)CCCC1(C)C

> <JCHEM_ACCEPTOR_COUNT>
1

> <JCHEM_DONOR_COUNT>
1

> <JCHEM_ACIDIC_PKA>
16.44

> <JCHEM_BASIC_PKA>
-2.2

> <JCHEM_PHYSIOLOGICAL_CHARGE>
0

> <ALOGPS_LOGP>
6.38

> <JCHEM_LOGP>
4.69

> <ALOGPS_LOGS>
-4.6

> <JCHEM_POLARIZABILITY>
36.54

> <JCHEM_POLAR_SURFACE_AREA>
20.23

> <JCHEM_REFRACTIVITY>
97.92

> <JCHEM_ROTATABLE_BOND_COUNT>
5

> <ALOGPS_SOLUBILITY>
7.58e-03 g/l __ __ 

$$$$
