DB00411
 OpenBabel03181418042D

 11  9  0  0  0  0  0  0  0  0999 V2000
   -3.8893    0.7661    0.0000 N    0  0  0  0  0  0  0  0  0  0  0  0
   -3.1748    0.3536    0.0000 C    0  0  0  0  0  0  0  0  0  0  0  0
   -2.4603    0.7661    0.0000 C    0  0  0  0  0  0  0  0  0  0  0  0
   -1.7459    0.3536    0.0000 O    0  0  0  0  0  0  0  0  0  0  0  0
   -1.0314    0.7661    0.0000 C    0  0  0  0  0  0  0  0  0  0  0  0
   -0.3169    0.3536    0.0000 N    0  0  0  0  0  0  0  0  0  0  0  0
   -1.0314    1.5911    0.0000 O    0  0  0  0  0  0  0  0  0  0  0  0
   -4.6038    0.3536    0.0000 C    0  0  0  0  0  0  0  0  0  0  0  0
   -4.6038    1.1786    0.0000 C    0  0  0  0  0  0  0  0  0  0  0  0
   -3.8893    1.5911    0.0000 C    0  0  0  0  0  0  0  0  0  0  0  0
   -2.3866    1.7973    0.0000 Cl   0  0  0  0  0  0  0  0  0  0  0  0
  1  2  1  0  0  0  0
  1  8  1  0  0  0  0
  1  9  1  0  0  0  0
  1 10  1  0  0  0  0
  2  3  1  0  0  0  0
  3  4  1  0  0  0  0
  4  5  1  0  0  0  0
  5  6  1  0  0  0  0
  5  7  2  0  0  0  0
M  END
> <DRUGBANK_ID>
DB00411

> <DRUG_GROUPS>
approved

> <GENERIC_NAME>
Carbachol

> <BRANDS>
Carbachol chloride; Carbachol hydrochloride; Carbachol USP27; Carbacholin; Carbacholine; Carbacholine chloride; Carbacolina; Carbaminocholine chloride; Carbaminoylcholine chloride; Carbamiotin; Carbamoylcholine chloride; Carbamoylcholine-hydrochloride; Carbamylcholine chloride; Carbastat; Carbastat intraocular; Carbochol; Carbocholin; Carbocholine; Carboptic; Carbyl; Carcholin; CB; Choline carbamate chloride; Choline chloride carbamate; Choline chloride, carbamoyl-; Choline chlorine carbamate; Choline, chloride, carbamate; Coletyl; Doryl; Isopto Carbachol; Jestryl; Karbachol; Karbamoylcholin chlorid; Lentin; Lentine; Miostat; Mistura C; Moryl; P. V. Carbachol; Rilentol; Vasoperif

> <CHEMICAL_FORMULA>
C6H15ClN2O2

> <MOLECULAR_WEIGHT>
182.649

> <EXACT_MASS>
182.082205441

> <IUPAC_NAME>
2-(trimethylazaniumyl)ethyl carbamate chloride

> <INCHI_IDENTIFIER>
InChI=1S/C6H14N2O2.ClH/c1-8(2,3)4-5-10-6(7)9;/h4-5H2,1-3H3,(H-,7,9);1H

> <INCHI_KEY>
InChIKey=AIXAANGOTKPUOY-UHFFFAOYSA-N

> <SMILES>
[Cl-].C[N+](C)(C)CCOC(N)=O

> <JCHEM_ACCEPTOR_COUNT>
1

> <JCHEM_DONOR_COUNT>
1

> <JCHEM_ACIDIC_PKA>
15.23

> <JCHEM_PHYSIOLOGICAL_CHARGE>
1

> <ALOGPS_LOGP>
-3.5

> <JCHEM_LOGP>
-4.6

> <ALOGPS_LOGS>
-2.3

> <JCHEM_POLARIZABILITY>
16.14

> <JCHEM_POLAR_SURFACE_AREA>
52.32

> <JCHEM_REFRACTIVITY>
50.02

> <JCHEM_ROTATABLE_BOND_COUNT>
4

> <ALOGPS_SOLUBILITY>
9.48e-01 g/l __ __ 

$$$$
