DB00772
 OpenBabel03181418042D

 19 18  0  0  1  0  0  0  0  0999 V2000
    3.7935    1.3481    0.0000 S   0  0  0  0  0  0  0  0  0  0  0  0
    3.4916    0.2210    0.0000 S   0  0  0  0  0  0  0  0  0  0  0  0
    3.0791    0.9356    0.0000 P   0  0  0  0  0  0  0  0  0  0  0  0
    5.9370    0.9356    0.0000 O   0  0  0  0  0  0  0  0  0  0  0  0
    5.2224   -1.1270    0.0000 O   0  0  0  0  0  0  0  0  0  0  0  0
    2.3645    0.5231    0.0000 O   0  0  0  0  0  0  0  0  0  0  0  0
    2.6665    1.6500    0.0000 O   0  0  0  0  0  0  0  0  0  0  0  0
    5.2224    2.1731    0.0000 O   0  0  0  0  0  0  0  0  0  0  0  0
    5.9370    0.1106    0.0000 O   0  0  0  0  0  0  0  0  0  0  0  0
    4.5080    0.9356    0.0000 C   0  0  3  0  0  0  0  0  0  0  0  0
    4.5080    0.1106    0.0000 C   0  0  0  0  0  0  0  0  0  0  0  0
    5.2224    1.3481    0.0000 C   0  0  0  0  0  0  0  0  0  0  0  0
    5.2224   -0.3020    0.0000 C   0  0  0  0  0  0  0  0  0  0  0  0
    6.6515    1.3481    0.0000 C   0  0  0  0  0  0  0  0  0  0  0  0
    5.9370   -1.5395    0.0000 C   0  0  0  0  0  0  0  0  0  0  0  0
    7.3659    0.9356    0.0000 C   0  0  0  0  0  0  0  0  0  0  0  0
    5.9370   -2.3645    0.0000 C   0  0  0  0  0  0  0  0  0  0  0  0
    1.6500    0.9356    0.0000 C   0  0  0  0  0  0  0  0  0  0  0  0
    3.0791    2.3645    0.0000 C   0  0  0  0  0  0  0  0  0  0  0  0
  1  3  1  0  0  0  0
  1 10  1  0  0  0  0
  2  3  2  0  0  0  0
  3  6  1  0  0  0  0
  3  7  1  0  0  0  0
  4 12  1  0  0  0  0
  4 14  1  0  0  0  0
  5 13  1  0  0  0  0
  5 15  1  0  0  0  0
  6 18  1  0  0  0  0
  7 19  1  0  0  0  0
  8 12  2  0  0  0  0
  9 13  2  0  0  0  0
 10 11  1  0  0  0  0
 10 12  1  0  0  0  0
 11 13  1  0  0  0  0
 14 16  1  0  0  0  0
 15 17  1  0  0  0  0
M  END
> <DRUGBANK_ID>
DB00772

> <DRUG_GROUPS>
approved; investigational

> <GENERIC_NAME>
Malathion

> <SYNONYMS>
Carbofos; Carbophos; Compound 4049; Experimental insecticide 4049; Insecticide no. 4049; Malathione; Maldison; Mercaptosuccinic acid diethyl ester; Mercaptothion; Mercaptotion; MLT; Oleophosphothion

> <BRANDS>
Calmathion; Carbethoxy malathion; Carbetovur; Carbetox; Celthion; Chemathion; Cimexan; Cleensheen; Cythion; Derbac-M; Detmol MA; Emmatos; Emmatos extra; Ethiolacar; Etiol; Extermathion; Fog 3; Formal; Forthion; Fosfothion; Fosfotion; Fosfotion 550; Fyfanon; Hilthion; Hilthion 25WDP; Karbofos; Kop-thion; Kop-Thionkypfosmalacide; Kypfos; Latka 4049; Lice Rid; Malacide; Malafor; Malagran; Malakill; Malamar; Malamar 50; Malaphele; Malaphos; Malasol; Malaspray; Malathion 60; Malathion E50; Malathion LV Concentrate; Malathiozoo; Malathon; Malation; Malatol; Malatox; Malmed; Malphos; Maltox; Maltox MLT; Moscarda; OMS 1; Organoderm; Ortho Malathion; Ovide; Phosphothion; Prioderm; Sadofos; Sadofos 30; Sadophos; Siptox I; Staeubol-Puder; Suleo-M; Sumitox; TAK; Taskil; Vegfru malatox; Vetiol; Zithiol

> <CHEMICAL_FORMULA>
C10H19O6PS2

> <MOLECULAR_WEIGHT>
330.358

> <EXACT_MASS>
330.036066232

> <IUPAC_NAME>
1,4-diethyl 2-{[dimethoxy(sulfanylidene)-$l^{5}-phosphanyl]sulfanyl}butanedioate

> <INCHI_IDENTIFIER>
InChI=1S/C10H19O6PS2/c1-5-15-9(11)7-8(10(12)16-6-2)19-17(18,13-3)14-4/h8H,5-7H2,1-4H3

> <INCHI_KEY>
InChIKey=JXSJBGJIGXNWCI-UHFFFAOYSA-N

> <SMILES>
CCOC(=O)CC(SP(=S)(OC)OC)C(=O)OCC

> <JCHEM_ACCEPTOR_COUNT>
2

> <JCHEM_DONOR_COUNT>
0

> <JCHEM_BASIC_PKA>
-6.8

> <JCHEM_PHYSIOLOGICAL_CHARGE>
0

> <ALOGPS_LOGP>
2.67

> <JCHEM_LOGP>
1.86

> <ALOGPS_LOGS>
-3.3

> <JCHEM_POLARIZABILITY>
31.66

> <JCHEM_POLAR_SURFACE_AREA>
71.06

> <JCHEM_REFRACTIVITY>
78.18

> <JCHEM_ROTATABLE_BOND_COUNT>
11

> <ALOGPS_SOLUBILITY>
1.65e-01 g/l __ __ 

$$$$
