DB00812
 OpenBabel03181418042D

 23 25  0  0  0  0  0  0  0  0999 V2000
    3.9995    1.1186    0.0000 O   0  0  0  0  0  0  0  0  0  0  0  0
    1.6500   -0.5884    0.0000 O   0  0  0  0  0  0  0  0  0  0  0  0
    3.7695   -0.3335    0.0000 N   0  0  0  0  0  0  0  0  0  0  0  0
    3.1021   -0.8184    0.0000 N   0  0  0  0  0  0  0  0  0  0  0  0
    2.6896    0.4512    0.0000 C   0  0  0  0  0  0  0  0  0  0  0  0
    2.2047    1.1186    0.0000 C   0  0  0  0  0  0  0  0  0  0  0  0
    3.5146    0.4512    0.0000 C   0  0  0  0  0  0  0  0  0  0  0  0
    2.4347   -0.3335    0.0000 C   0  0  0  0  0  0  0  0  0  0  0  0
    2.5402    1.8723    0.0000 C   0  0  0  0  0  0  0  0  0  0  0  0
    2.0553    2.5397    0.0000 C   0  0  0  0  0  0  0  0  0  0  0  0
    4.5541   -0.5884    0.0000 C   0  0  0  0  0  0  0  0  0  0  0  0
    3.1021   -1.6434    0.0000 C   0  0  0  0  0  0  0  0  0  0  0  0
    2.3909    3.2934    0.0000 C   0  0  0  0  0  0  0  0  0  0  0  0
    5.1672   -0.0364    0.0000 C   0  0  0  0  0  0  0  0  0  0  0  0
    3.8166   -2.0559    0.0000 C   0  0  0  0  0  0  0  0  0  0  0  0
    4.7257   -1.3954    0.0000 C   0  0  0  0  0  0  0  0  0  0  0  0
    2.3876   -2.0559    0.0000 C   0  0  0  0  0  0  0  0  0  0  0  0
    5.9518   -0.2913    0.0000 C   0  0  0  0  0  0  0  0  0  0  0  0
    3.8166   -2.8809    0.0000 C   0  0  0  0  0  0  0  0  0  0  0  0
    5.5103   -1.6503    0.0000 C   0  0  0  0  0  0  0  0  0  0  0  0
    2.3876   -2.8809    0.0000 C   0  0  0  0  0  0  0  0  0  0  0  0
    6.1234   -1.0982    0.0000 C   0  0  0  0  0  0  0  0  0  0  0  0
    3.1021   -3.2934    0.0000 C   0  0  0  0  0  0  0  0  0  0  0  0
  1  7  2  0  0  0  0
  2  8  2  0  0  0  0
  3  4  1  0  0  0  0
  3  7  1  0  0  0  0
  3 11  1  0  0  0  0
  4  8  1  0  0  0  0
  4 12  1  0  0  0  0
  5  6  1  0  0  0  0
  5  7  1  0  0  0  0
  5  8  1  0  0  0  0
  6  9  1  0  0  0  0
  9 10  1  0  0  0  0
 10 13  1  0  0  0  0
 11 14  2  0  0  0  0
 11 16  1  0  0  0  0
 12 15  2  0  0  0  0
 12 17  1  0  0  0  0
 14 18  1  0  0  0  0
 15 19  1  0  0  0  0
 16 20  2  0  0  0  0
 17 21  2  0  0  0  0
 18 22  2  0  0  0  0
 19 23  2  0  0  0  0
 20 22  1  0  0  0  0
 21 23  1  0  0  0  0
M  END
> <DRUGBANK_ID>
DB00812

> <DRUG_GROUPS>
approved

> <GENERIC_NAME>
Phenylbutazone

> <BRANDS>
'Esteve'; Alindor; Alka Butazolidin; Alkabutazona; Alqoverin; Anerval; Anpuzone; Antadol; Anuspiramin; Apo-Phenylbutazone; Arthrizon; Artizin; Artrizin; Artrizone; Artropan; Azdid; Azobutyl; Azolid; B.T.Z.; Benzone; Betazed; Bizolin; Bizolin 200; Bunetzone; Busone; Buta Phen; Butacompren; Butacote; Butadion; Butadiona; Butadione; Butagesic; Butalgina; Butalidon; Butaluy; Butapirazol; Butapirazole; Butapyrazole; Butarecbon; Butartril; Butartrina; Butatron; Butazina; Butazolidin; Butazolidine; Butazona; Bute; Butidiona; Butiwas-Simple; Butone; Butoz; Butylpyrin; Buvetzone; Buzon; Chembutazone; Cotylbutazone; Digibutina; Diossidone; Diozol; Diphebuzol; Diphenylbutazone; Ecobutazone; Elmedal; Equi Bute; Equipalazone; Eributazone; Exrheudon N; Febuzina; Fenartil; Fenibutal; Fenibutasan; Fenibutazona; Fenibutol; Fenilbutazona; Fenilbutina; Fenilbutine; Fenilidina; Fenotone; Fenylbutazon; Ia-But; Intalbut; Intrabutazone; Intrazone; Ipsoflame; Kadol; Lingel; Malgesic; Mepha-Butazon; Mephabutazon; Mephabutazone; Merizone; Nadazone; Nadozone; Neo-Zoline; Novophenyl; Phebuzin; Phebuzine; Phenbutazol; Phenbutazone; Phenopyrine; Phenyl-Mobuzon; Phenylbutaz; Phenylbutazonum; Phenyzene; Phenyzone; Pirarreumol "B"; Pirarreumol B; Praecirheumin; Pyrabutol; Pyrazolidin; Rectofasa; Reudo; Reudox; Reumasyl; Reumazin; Reumazol; Reumune; Reumuzol; Reupolar; Robizon-V; Robizone; Robizone-V; Rubatone; Scanbutazone; Schemergin; Shigrodin; Tazone; Tencodyne; Tetnor; Tevcodyne; Therazone; Ticinil; Todalgil; Usaf Ge-15; Uzone; VAC-10; Wescozone; Zolaphen; Zolidinum

> <CHEMICAL_FORMULA>
C19H20N2O2

> <MOLECULAR_WEIGHT>
308.3743

> <EXACT_MASS>
308.152477894

> <IUPAC_NAME>
4-butyl-1,2-diphenylpyrazolidine-3,5-dione

> <INCHI_IDENTIFIER>
InChI=1S/C19H20N2O2/c1-2-3-14-17-18(22)20(15-10-6-4-7-11-15)21(19(17)23)16-12-8-5-9-13-16/h4-13,17H,2-3,14H2,1H3

> <INCHI_KEY>
InChIKey=VYMDGNCVAMGZFE-UHFFFAOYSA-N

> <SMILES>
CCCCC1C(=O)N(N(C1=O)C1=CC=CC=C1)C1=CC=CC=C1

> <JCHEM_ACCEPTOR_COUNT>
2

> <JCHEM_DONOR_COUNT>
0

> <JCHEM_ACIDIC_PKA>
5.13

> <JCHEM_PHYSIOLOGICAL_CHARGE>
-1

> <ALOGPS_LOGP>
2.81

> <JCHEM_LOGP>
4.14

> <ALOGPS_LOGS>
-3.3

> <JCHEM_POLARIZABILITY>
34.15

> <JCHEM_POLAR_SURFACE_AREA>
40.62

> <JCHEM_REFRACTIVITY>
88.76

> <JCHEM_ROTATABLE_BOND_COUNT>
5

> <ALOGPS_SOLUBILITY>
1.44e-01 g/l __ __ 

$$$$
