DB00470
 OpenBabel03181420342D

 25 27  0  0  1  0  0  0  0  0999 V2000
    7.4202   -1.7338    0.0000 O   0  0  0  0  0  0  0  0  0  0  0  0
    5.9778    0.7697    0.0000 O   0  0  0  0  0  0  0  0  0  0  0  0
    8.1347   -0.4963    0.0000 C   0  0  2  0  0  0  0  0  0  0  0  0
    7.4202   -0.0838    0.0000 C   0  0  2  0  0  0  0  0  0  0  0  0
    8.1347   -1.3213    0.0000 C   0  0  0  0  0  0  0  0  0  0  0  0
    8.8854   -0.0782    0.0000 C   0  0  0  0  0  0  0  0  0  0  0  0
    6.7058   -0.4963    0.0000 C   0  0  0  0  0  0  0  0  0  0  0  0
    8.8921    0.7811    0.0000 C   0  0  0  0  0  0  0  0  0  0  0  0
    7.4069    0.7754    0.0000 C   0  0  0  0  0  0  0  0  0  0  0  0
    8.1479    1.2108    0.0000 C   0  0  0  0  0  0  0  0  0  0  0  0
    6.7058   -1.3213    0.0000 C   0  0  0  0  0  0  0  0  0  0  0  0
    8.5472   -2.0358    0.0000 C   0  0  0  0  0  0  0  0  0  0  0  0
    8.9597   -1.3213    0.0000 C   0  0  0  0  0  0  0  0  0  0  0  0
    5.9682   -0.0553    0.0000 C   0  0  0  0  0  0  0  0  0  0  0  0
    5.9682   -1.7624    0.0000 C   0  0  0  0  0  0  0  0  0  0  0  0
    8.1446    2.0358    0.0000 C   0  0  0  0  0  0  0  0  0  0  0  0
    5.2208   -1.3385    0.0000 C   0  0  0  0  0  0  0  0  0  0  0  0
    5.2208   -0.4792    0.0000 C   0  0  0  0  0  0  0  0  0  0  0  0
    4.5079   -1.7538    0.0000 C   0  0  0  0  0  0  0  0  0  0  0  0
    3.7918   -1.3440    0.0000 C   0  0  0  0  0  0  0  0  0  0  0  0
    3.0789   -1.7592    0.0000 C   0  0  0  0  0  0  0  0  0  0  0  0
    2.3629   -1.3495    0.0000 C   0  0  0  0  0  0  0  0  0  0  0  0
    1.6500   -1.7648    0.0000 C   0  0  0  0  0  0  0  0  0  0  0  0
    8.7037   -0.8307    0.0000 H   0  0  0  0  0  0  0  0  0  0  0  0
    7.9892    0.2506    0.0000 H   0  0  0  0  0  0  0  0  0  0  0  0
  1  5  1  0  0  0  0
  1 11  1  0  0  0  0
  2 14  1  0  0  0  0
  3  4  1  0  0  0  0
  3  5  1  0  0  0  0
  3  6  1  0  0  0  0
  3 24  1  6  0  0  0
  4  7  1  0  0  0  0
  4  9  1  0  0  0  0
  4 25  1  1  0  0  0
  5 12  1  0  0  0  0
  5 13  1  0  0  0  0
  6  8  1  0  0  0  0
  7 11  1  0  0  0  0
  7 14  2  0  0  0  0
  8 10  1  0  0  0  0
  9 10  2  0  0  0  0
 10 16  1  0  0  0  0
 11 15  2  0  0  0  0
 14 18  1  0  0  0  0
 15 17  1  0  0  0  0
 17 18  2  0  0  0  0
 17 19  1  0  0  0  0
 19 20  1  0  0  0  0
 20 21  1  0  0  0  0
 21 22  1  0  0  0  0
 22 23  1  0  0  0  0
M  END
> <DRUGBANK_ID>
DB00470

> <DRUG_GROUPS>
illicit; approved

> <GENERIC_NAME>
Dronabinol

> <BRANDS>
&Delta;9-tetrahydrocannabinol; &Delta;9-THC; Abbott 40566; Dea No. 7369; Dea No. 7370; delta-9-tetrahydrocannabinol; delta-9-THC; Deltanyne; Dronabinol; Dronabinol [Usan:Inn]; Dronabinolum [Latin]; Marinol

> <CHEMICAL_FORMULA>
C21H30O2

> <MOLECULAR_WEIGHT>
314.4617

> <EXACT_MASS>
314.224580204

> <IUPAC_NAME>
(6aR,10aR)-6,6,9-trimethyl-3-pentyl-6H,6aH,7H,8H,10aH-benzo[c]isochromen-1-ol

> <INCHI_IDENTIFIER>
InChI=1S/C21H30O2/c1-5-6-7-8-15-12-18(22)20-16-11-14(2)9-10-17(16)21(3,4)23-19(20)13-15/h11-13,16-17,22H,5-10H2,1-4H3/t16-,17-/m1/s1

> <INCHI_KEY>
InChIKey=CYQFCXCEBYINGO-IAGOWNOFSA-N

> <SMILES>
[H][C@@]12C=C(C)CC[C@@]1([H])C(C)(C)OC1=CC(CCCCC)=CC(O)=C21

> <JCHEM_ACCEPTOR_COUNT>
2

> <JCHEM_DONOR_COUNT>
1

> <JCHEM_ACIDIC_PKA>
9.34

> <JCHEM_BASIC_PKA>
-4.9

> <JCHEM_PHYSIOLOGICAL_CHARGE>
0

> <ALOGPS_LOGP>
7.29

> <JCHEM_LOGP>
5.94

> <ALOGPS_LOGS>
-5.1

> <JCHEM_POLARIZABILITY>
38.81

> <JCHEM_POLAR_SURFACE_AREA>
29.46

> <JCHEM_REFRACTIVITY>
96.73

> <JCHEM_ROTATABLE_BOND_COUNT>
4

> <ALOGPS_SOLUBILITY>
2.63e-03 g/l __ __ 

$$$$
