DB00412
 OpenBabel03181418042D

 25 27  0  0  1  0  0  0  0  0999 V2000
    5.2616    2.8536    0.0000 S   0  0  0  0  0  0  0  0  0  0  0  0
    3.7935   -0.5234    0.0000 O   0  0  0  0  0  0  0  0  0  0  0  0
    3.9811    4.5617    0.0000 O   0  0  0  0  0  0  0  0  0  0  0  0
    6.6342    3.3805    0.0000 O   0  0  0  0  0  0  0  0  0  0  0  0
    2.3645   -2.1734    0.0000 N   0  0  0  0  0  0  0  0  0  0  0  0
    5.4012    4.1812    0.0000 N   0  0  0  0  0  0  0  0  0  0  0  0
    1.6500   -3.4110    0.0000 N   0  0  0  0  0  0  0  0  0  0  0  0
    4.5080    3.1892    0.0000 C   0  0  3  0  0  0  0  0  0  0  0  0
    3.7935    2.7767    0.0000 C   0  0  0  0  0  0  0  0  0  0  0  0
    3.7935    1.9517    0.0000 C   0  0  0  0  0  0  0  0  0  0  0  0
    4.5942    4.0097    0.0000 C   0  0  0  0  0  0  0  0  0  0  0  0
    3.0790   -1.7609    0.0000 C   0  0  0  0  0  0  0  0  0  0  0  0
    4.5080    1.5392    0.0000 C   0  0  0  0  0  0  0  0  0  0  0  0
    3.0790    1.5392    0.0000 C   0  0  0  0  0  0  0  0  0  0  0  0
    3.0790   -0.9359    0.0000 C   0  0  0  0  0  0  0  0  0  0  0  0
    3.7935    0.3016    0.0000 C   0  0  0  0  0  0  0  0  0  0  0  0
    4.5080    0.7141    0.0000 C   0  0  0  0  0  0  0  0  0  0  0  0
    3.0790    0.7141    0.0000 C   0  0  0  0  0  0  0  0  0  0  0  0
    5.8137    3.4667    0.0000 C   0  0  0  0  0  0  0  0  0  0  0  0
    2.3645   -2.9984    0.0000 C   0  0  0  0  0  0  0  0  0  0  0  0
    1.6500   -1.7609    0.0000 C   0  0  0  0  0  0  0  0  0  0  0  0
    3.0790   -3.4110    0.0000 C   0  0  0  0  0  0  0  0  0  0  0  0
    3.0790   -4.2360    0.0000 C   0  0  0  0  0  0  0  0  0  0  0  0
    1.6500   -4.2360    0.0000 C   0  0  0  0  0  0  0  0  0  0  0  0
    2.3645   -4.6485    0.0000 C   0  0  0  0  0  0  0  0  0  0  0  0
  1  8  1  0  0  0  0
  1 19  1  0  0  0  0
  2 15  1  0  0  0  0
  2 16  1  0  0  0  0
  3 11  2  0  0  0  0
  4 19  2  0  0  0  0
  5 12  1  0  0  0  0
  5 20  1  0  0  0  0
  5 21  1  0  0  0  0
  6 11  1  0  0  0  0
  6 19  1  0  0  0  0
  7 20  1  0  0  0  0
  7 24  2  0  0  0  0
  8  9  1  0  0  0  0
  8 11  1  0  0  0  0
  9 10  1  0  0  0  0
 10 13  2  0  0  0  0
 10 14  1  0  0  0  0
 12 15  1  0  0  0  0
 13 17  1  0  0  0  0
 14 18  2  0  0  0  0
 16 17  2  0  0  0  0
 16 18  1  0  0  0  0
 20 22  2  0  0  0  0
 22 23  1  0  0  0  0
 23 25  2  0  0  0  0
 24 25  1  0  0  0  0
M  END
> <DRUGBANK_ID>
DB00412

> <DRUG_GROUPS>
approved; investigational

> <GENERIC_NAME>
Rosiglitazone

> <SYNONYMS>
Rosigliazone maleate; Rosiglitazone maleate

> <BRANDS>
Avandia; Rosiglizole

> <CHEMICAL_FORMULA>
C18H19N3O3S

> <MOLECULAR_WEIGHT>
357.427

> <EXACT_MASS>
357.114712179

> <IUPAC_NAME>
5-[(4-{2-[methyl(pyridin-2-yl)amino]ethoxy}phenyl)methyl]-1,3-thiazolidine-2,4-dione

> <INCHI_IDENTIFIER>
InChI=1S/C18H19N3O3S/c1-21(16-4-2-3-9-19-16)10-11-24-14-7-5-13(6-8-14)12-15-17(22)20-18(23)25-15/h2-9,15H,10-12H2,1H3,(H,20,22,23)

> <INCHI_KEY>
InChIKey=YASAKCUCGLMORW-UHFFFAOYSA-N

> <SMILES>
CN(CCOC1=CC=C(CC2SC(=O)NC2=O)C=C1)C1=CC=CC=N1

> <JCHEM_ACCEPTOR_COUNT>
5

> <JCHEM_DONOR_COUNT>
1

> <JCHEM_ACIDIC_PKA>
6.84

> <JCHEM_BASIC_PKA>
6.23

> <JCHEM_PHYSIOLOGICAL_CHARGE>
-1

> <ALOGPS_LOGP>
2.95

> <JCHEM_LOGP>
2.45

> <ALOGPS_LOGS>
-4

> <JCHEM_POLARIZABILITY>
37.79

> <JCHEM_POLAR_SURFACE_AREA>
71.53

> <JCHEM_REFRACTIVITY>
97.79

> <JCHEM_ROTATABLE_BOND_COUNT>
7

> <ALOGPS_SOLUBILITY>
3.80e-02 g/l __ __ 

$$$$
