DB00296
 OpenBabel03181418042D

 20 21  0  0  1  0  0  0  0  0999 V2000
    4.7938   -0.9487    0.0000 O   0  0  0  0  0  0  0  0  0  0  0  0
    2.6503   -0.5362    0.0000 N   0  0  0  0  0  0  0  0  0  0  0  0
    4.0793    0.2888    0.0000 N   0  0  0  0  0  0  0  0  0  0  0  0
    3.3648   -0.9487    0.0000 C   0  0  1  0  0  0  0  0  0  0  0  0
    3.3648   -1.7737    0.0000 C   0  0  0  0  0  0  0  0  0  0  0  0
    1.9359   -0.9487    0.0000 C   0  0  0  0  0  0  0  0  0  0  0  0
    2.6503   -2.1862    0.0000 C   0  0  0  0  0  0  0  0  0  0  0  0
    1.9359   -1.7737    0.0000 C   0  0  0  0  0  0  0  0  0  0  0  0
    2.6503    0.2888    0.0000 C   0  0  0  0  0  0  0  0  0  0  0  0
    4.0793   -0.5362    0.0000 C   0  0  0  0  0  0  0  0  0  0  0  0
    1.9359    0.7013    0.0000 C   0  0  0  0  0  0  0  0  0  0  0  0
    1.9359    1.5263    0.0000 C   0  0  0  0  0  0  0  0  0  0  0  0
    4.7938    0.7013    0.0000 C   0  0  0  0  0  0  0  0  0  0  0  0
    4.7938    1.5263    0.0000 C   0  0  0  0  0  0  0  0  0  0  0  0
    5.5082    0.2888    0.0000 C   0  0  0  0  0  0  0  0  0  0  0  0
    5.5082    1.9388    0.0000 C   0  0  0  0  0  0  0  0  0  0  0  0
    6.2227    0.7013    0.0000 C   0  0  0  0  0  0  0  0  0  0  0  0
    4.0793    1.9388    0.0000 C   0  0  0  0  0  0  0  0  0  0  0  0
    5.5082   -0.5362    0.0000 C   0  0  0  0  0  0  0  0  0  0  0  0
    6.2227    1.5263    0.0000 C   0  0  0  0  0  0  0  0  0  0  0  0
  1 10  2  0  0  0  0
  2  4  1  0  0  0  0
  2  6  1  0  0  0  0
  2  9  1  0  0  0  0
  3 10  1  0  0  0  0
  3 13  1  0  0  0  0
  4  5  1  0  0  0  0
  4 10  1  6  0  0  0
  5  7  1  0  0  0  0
  6  8  1  0  0  0  0
  7  8  1  0  0  0  0
  9 11  1  0  0  0  0
 11 12  1  0  0  0  0
 13 14  2  0  0  0  0
 13 15  1  0  0  0  0
 14 16  1  0  0  0  0
 14 18  1  0  0  0  0
 15 17  2  0  0  0  0
 15 19  1  0  0  0  0
 16 20  2  0  0  0  0
 17 20  1  0  0  0  0
M  END
> <DRUGBANK_ID>
DB00296

> <DRUG_GROUPS>
approved

> <GENERIC_NAME>
Ropivacaine

> <SYNONYMS>
Ropivacaina [INN-Spanish]; Ropivacaina [Spanish]; Ropivacaine [INN]; Ropivacainum [INN-Latin]; S-Ropivacaine

> <BRANDS>
Naropin

> <CHEMICAL_FORMULA>
C17H26N2O

> <MOLECULAR_WEIGHT>
274.4011

> <EXACT_MASS>
274.204513464

> <IUPAC_NAME>
(2S)-N-(2,6-dimethylphenyl)-1-propylpiperidine-2-carboxamide

> <INCHI_IDENTIFIER>
InChI=1S/C17H26N2O/c1-4-11-19-12-6-5-10-15(19)17(20)18-16-13(2)8-7-9-14(16)3/h7-9,15H,4-6,10-12H2,1-3H3,(H,18,20)/t15-/m0/s1

> <INCHI_KEY>
InChIKey=ZKMNUMMKYBVTFN-HNNXBMFYSA-N

> <SMILES>
CCCN1CCCC[C@H]1C(=O)NC1=C(C)C=CC=C1C

> <JCHEM_ACCEPTOR_COUNT>
2

> <JCHEM_DONOR_COUNT>
1

> <JCHEM_ACIDIC_PKA>
13.62

> <JCHEM_BASIC_PKA>
7.82

> <JCHEM_PHYSIOLOGICAL_CHARGE>
1

> <ALOGPS_LOGP>
2.91

> <JCHEM_LOGP>
4.07

> <ALOGPS_LOGS>
-3

> <JCHEM_POLARIZABILITY>
32.31

> <JCHEM_POLAR_SURFACE_AREA>
32.34

> <JCHEM_REFRACTIVITY>
85.59

> <JCHEM_ROTATABLE_BOND_COUNT>
4

> <ALOGPS_SOLUBILITY>
2.53e-01 g/l __ __ 

$$$$
