DB00306
 OpenBabel03181420342D

 18 18  0  0  1  0  0  0  0  0999 V2000
    1.8711    0.1658    0.0000 O   0  0  0  0  0  0  0  0  0  0  0  0
    4.7291    0.1658    0.0000 O   0  0  0  0  0  0  0  0  0  0  0  0
    3.3001   -2.3092    0.0000 O   0  0  0  0  0  0  0  0  0  0  0  0
    2.5856   -1.0717    0.0000 N   0  0  0  0  0  0  0  0  0  0  0  0
    4.0145   -1.0717    0.0000 N   0  0  0  0  0  0  0  0  0  0  0  0
    3.3001    0.1658    0.0000 C   0  0  0  0  0  0  0  0  0  0  0  0
    3.7126    0.8803    0.0000 C   0  0  3  0  0  0  0  0  0  0  0  0
    2.8876    0.8803    0.0000 C   0  0  0  0  0  0  0  0  0  0  0  0
    3.3001    1.5948    0.0000 C   0  0  0  0  0  0  0  0  0  0  0  0
    2.5856   -0.2467    0.0000 C   0  0  0  0  0  0  0  0  0  0  0  0
    4.0145   -0.2467    0.0000 C   0  0  0  0  0  0  0  0  0  0  0  0
    4.5376    0.8803    0.0000 C   0  0  0  0  0  0  0  0  0  0  0  0
    3.3001   -1.4842    0.0000 C   0  0  0  0  0  0  0  0  0  0  0  0
    3.7126    2.3092    0.0000 C   0  0  0  0  0  0  0  0  0  0  0  0
    2.0625    0.8803    0.0000 C   0  0  0  0  0  0  0  0  0  0  0  0
    1.8711   -1.4842    0.0000 C   0  0  0  0  0  0  0  0  0  0  0  0
    4.7291   -1.4842    0.0000 C   0  0  0  0  0  0  0  0  0  0  0  0
    1.6500    1.5948    0.0000 C   0  0  0  0  0  0  0  0  0  0  0  0
  1 10  2  0  0  0  0
  2 11  2  0  0  0  0
  3 13  2  0  0  0  0
  4 10  1  0  0  0  0
  4 13  1  0  0  0  0
  4 16  1  0  0  0  0
  5 11  1  0  0  0  0
  5 13  1  0  0  0  0
  5 17  1  0  0  0  0
  6  7  1  0  0  0  0
  6  8  1  0  0  0  0
  6 10  1  0  0  0  0
  6 11  1  0  0  0  0
  7  9  1  0  0  0  0
  7 12  1  0  0  0  0
  8 15  1  0  0  0  0
  9 14  1  0  0  0  0
 15 18  2  0  0  0  0
M  END
> <DRUGBANK_ID>
DB00306

> <DRUG_GROUPS>
illicit; approved

> <GENERIC_NAME>
Talbutal

> <SYNONYMS>
5-Allyl-5-sec-butylbarbituric acid; sec-Butyl allyl barbituric acid

> <BRANDS>
Latusate; Lotusate; Profundol

> <CHEMICAL_FORMULA>
C13H20N2O3

> <MOLECULAR_WEIGHT>
252.3095

> <EXACT_MASS>
252.147392516

> <IUPAC_NAME>
5-(butan-2-yl)-1,3-dimethyl-5-(prop-2-en-1-yl)-1,3-diazinane-2,4,6-trione

> <INCHI_IDENTIFIER>
InChI=1S/C13H20N2O3/c1-6-8-13(9(3)7-2)10(16)14(4)12(18)15(5)11(13)17/h6,9H,1,7-8H2,2-5H3

> <INCHI_KEY>
InChIKey=CDKJETHMMUVSNV-UHFFFAOYSA-N

> <SMILES>
CCC(C)C1(CC=C)C(=O)N(C)C(=O)N(C)C1=O

> <JCHEM_ACCEPTOR_COUNT>
3

> <JCHEM_DONOR_COUNT>
0

> <JCHEM_BASIC_PKA>
-9.4

> <JCHEM_PHYSIOLOGICAL_CHARGE>
0

> <ALOGPS_LOGP>
2.22

> <JCHEM_LOGP>
2.04

> <ALOGPS_LOGS>
-2

> <JCHEM_POLARIZABILITY>
26.52

> <JCHEM_POLAR_SURFACE_AREA>
57.69

> <JCHEM_REFRACTIVITY>
67.84

> <JCHEM_ROTATABLE_BOND_COUNT>
4

> <ALOGPS_SOLUBILITY>
2.63e+00 g/l __ __ 

$$$$
