DB01287
 OpenBabel03181418042D

 50 56  0  0  1  0  0  0  0  0999 V2000
    1.1575    5.7788    0.0000 S   0  0  0  0  0  0  0  0  0  0  0  0
    6.3630    6.1324    0.0000 O   0  0  0  0  0  0  0  0  0  0  0  0
    5.5195    6.6091    0.0000 O   0  0  0  0  0  0  0  0  0  0  0  0
    6.5212    9.4100    0.0000 O   0  0  0  0  0  0  0  0  0  0  0  0
    8.3941    6.7651    0.0000 O   0  0  0  0  0  0  0  0  0  0  0  0
    7.1723    4.3157    0.0000 O   0  0  0  0  0  0  0  0  0  0  0  0
    1.8720    6.1913    0.0000 O   0  0  0  0  0  0  0  0  0  0  0  0
    1.5700    5.0644    0.0000 O   0  0  0  0  0  0  0  0  0  0  0  0
    0.7450    6.4933    0.0000 O   0  0  0  0  0  0  0  0  0  0  0  0
    7.0243    7.2860    0.0000 N   0  0  0  0  0  0  0  0  0  0  0  0
    5.6857    8.2507    0.0000 N   0  0  0  0  0  0  0  0  0  0  0  0
   10.0863    4.3155    0.0000 N   0  0  0  0  0  0  0  0  0  0  0  0
    7.8820    5.5560    0.0000 N   0  0  0  0  0  0  0  0  0  0  0  0
   10.9015    0.8585    0.0000 N   0  0  0  0  0  0  0  0  0  0  0  0
    5.6026    7.4299    0.0000 C   0  0  2  0  0  0  0  0  0  0  0  0
    6.2720    6.9475    0.0000 C   0  0  2  0  0  0  0  0  0  0  0  0
    9.3587    3.0437    0.0000 C   0  0  3  0  0  0  0  0  0  0  0  0
    4.8006    7.2583    0.0000 C   0  0  0  0  0  0  0  0  0  0  0  0
   10.0731    3.4562    0.0000 C   0  0  1  0  0  0  0  0  0  0  0  0
    7.1074    8.1068    0.0000 C   0  0  2  0  0  0  0  0  0  0  0  0
    7.1659    5.9657    0.0000 C   0  0  1  0  0  0  0  0  0  0  0  0
    8.6012    4.3212    0.0000 C   0  0  2  0  0  0  0  0  0  0  0  0
    4.9344    8.5794    0.0000 C   0  0  0  0  0  0  0  0  0  0  0  0
    8.6079    3.4619    0.0000 C   0  0  0  0  0  0  0  0  0  0  0  0
    4.3884    7.9674    0.0000 C   0  0  0  0  0  0  0  0  0  0  0  0
    6.4381    8.5892    0.0000 C   0  0  0  0  0  0  0  0  0  0  0  0
    7.5738    6.6772    0.0000 C   0  0  0  0  0  0  0  0  0  0  0  0
    9.3455    4.7509    0.0000 C   0  0  0  0  0  0  0  0  0  0  0  0
   10.7876    3.0437    0.0000 C   0  0  0  0  0  0  0  0  0  0  0  0
    9.3587    2.2187    0.0000 C   0  0  0  0  0  0  0  0  0  0  0  0
    7.8598    8.4453    0.0000 C   0  0  0  0  0  0  0  0  0  0  0  0
    7.8852    4.7310    0.0000 C   0  0  0  0  0  0  0  0  0  0  0  0
   10.0731    1.8062    0.0000 C   0  0  0  0  0  0  0  0  0  0  0  0
   10.7876    2.2187    0.0000 C   0  0  0  0  0  0  0  0  0  0  0  0
    6.9975    5.1581    0.0000 C   0  0  0  0  0  0  0  0  0  0  0  0
   10.8056    4.7197    0.0000 C   0  0  0  0  0  0  0  0  0  0  0  0
   10.0863    0.9469    0.0000 C   0  0  0  0  0  0  0  0  0  0  0  0
    8.6079    1.8005    0.0000 C   0  0  0  0  0  0  0  0  0  0  0  0
   11.2974    1.5765    0.0000 C   0  0  0  0  0  0  0  0  0  0  0  0
    7.9429    9.2661    0.0000 C   0  0  0  0  0  0  0  0  0  0  0  0
    9.3455    0.5115    0.0000 C   0  0  0  0  0  0  0  0  0  0  0  0
    8.6012    0.9412    0.0000 C   0  0  0  0  0  0  0  0  0  0  0  0
    8.6953    9.6045    0.0000 C   0  0  0  0  0  0  0  0  0  0  0  0
    7.2735    9.7484    0.0000 C   0  0  0  0  0  0  0  0  0  0  0  0
    8.7784   10.4254    0.0000 C   0  0  0  0  0  0  0  0  0  0  0  0
    7.3566   10.5693    0.0000 C   0  0  0  0  0  0  0  0  0  0  0  0
    8.1090   10.9077    0.0000 C   0  0  0  0  0  0  0  0  0  0  0  0
    0.4430    5.3663    0.0000 C   0  0  0  0  0  0  0  0  0  0  0  0
    5.4671    6.7840    0.0000 H   0  0  0  0  0  0  0  0  0  0  0  0
   10.6473    3.7818    0.0000 H   0  0  0  0  0  0  0  0  0  0  0  0
  1  7  1  0  0  0  0
  1  8  2  0  0  0  0
  1  9  2  0  0  0  0
  1 48  1  0  0  0  0
  2 16  1  0  0  0  0
  2 21  1  0  0  0  0
  4 26  2  0  0  0  0
  5 27  2  0  0  0  0
  6 32  2  0  0  0  0
 10 16  1  0  0  0  0
 10 20  1  0  0  0  0
 10 27  1  0  0  0  0
 11 15  1  0  0  0  0
 11 23  1  0  0  0  0
 11 26  1  0  0  0  0
 12 19  1  0  0  0  0
 12 28  1  0  0  0  0
 12 36  1  0  0  0  0
 13 32  1  0  0  0  0
 14 37  1  0  0  0  0
 14 39  1  0  0  0  0
 15 16  1  0  0  0  0
 15 18  1  0  0  0  0
 15 49  1  1  0  0  0
 16  3  1  6  0  0  0
 17 19  1  0  0  0  0
 17 24  1  0  0  0  0
 17 30  1  0  0  0  0
 18 25  1  0  0  0  0
 19 29  1  0  0  0  0
 19 50  1  1  0  0  0
 20 26  1  0  0  0  0
 20 31  1  6  0  0  0
 21 13  1  6  0  0  0
 21 27  1  0  0  0  0
 21 35  1  0  0  0  0
 22 24  1  0  0  0  0
 22 28  1  0  0  0  0
 22 32  1  1  0  0  0
 23 25  1  0  0  0  0
 29 34  1  0  0  0  0
 30 33  2  0  0  0  0
 30 38  1  0  0  0  0
 31 40  1  0  0  0  0
 33 34  1  0  0  0  0
 33 37  1  0  0  0  0
 34 39  2  0  0  0  0
 37 41  2  0  0  0  0
 38 42  2  0  0  0  0
 40 43  2  0  0  0  0
 40 44  1  0  0  0  0
 41 42  1  0  0  0  0
 43 45  1  0  0  0  0
 44 46  2  0  0  0  0
 45 47  2  0  0  0  0
 46 47  1  0  0  0  0
M  END
> <DRUGBANK_ID>
DB01287

> <DRUG_GROUPS>
approved

> <GENERIC_NAME>
Dihydroergotoxine

> <CHEMICAL_FORMULA>
C34H41N5O8S

> <MOLECULAR_WEIGHT>
679.783

> <EXACT_MASS>
679.267584003

> <IUPAC_NAME>
(4R,7R)-N-[(1S,2S,4R,7S)-7-benzyl-2-hydroxy-4-methyl-5,8-dioxo-3-oxa-6,9-diazatricyclo[7.3.0.0^{2,6}]dodecan-4-yl]-6-methyl-6,11-diazatetracyclo[7.6.1.0^{2,7}.0^{12,16}]hexadeca-1(16),9,12,14-tetraene-4-carboxamide; methanesulfonic acid

> <INCHI_IDENTIFIER>
InChI=1S/C33H37N5O5.CH4O3S/c1-32(35-29(39)21-15-23-22-10-6-11-24-28(22)20(17-34-24)16-25(23)36(2)18-21)31(41)38-26(14-19-8-4-3-5-9-19)30(40)37-13-7-12-27(37)33(38,42)43-32;1-5(2,3)4/h3-6,8-11,17,21,23,25-27,34,42H,7,12-16,18H2,1-2H3,(H,35,39);1H3,(H,2,3,4)/t21-,23?,25-,26+,27+,32-,33+;/m1./s1

> <INCHI_KEY>
InChIKey=ADYPXRFPBQGGAH-WVVAGBSPSA-N

> <SMILES>
CS(O)(=O)=O.[H][C@@]12CCCN1C(=O)[C@H](CC1=CC=CC=C1)N1C(=O)[C@](C)(NC(=O)[C@@H]3CC4C5=C6C(C[C@@]4([H])N(C)C3)=CNC6=CC=C5)O[C@@]21O

> <JCHEM_ACCEPTOR_COUNT>
6

> <JCHEM_DONOR_COUNT>
3

> <JCHEM_ACIDIC_PKA>
9.71

> <JCHEM_BASIC_PKA>
8.39

> <JCHEM_PHYSIOLOGICAL_CHARGE>
1

> <JCHEM_LOGP>
2.71

> <JCHEM_POLARIZABILITY>
61.93

> <JCHEM_POLAR_SURFACE_AREA>
118.21

> <JCHEM_REFRACTIVITY>
159.39

> <JCHEM_ROTATABLE_BOND_COUNT>
4 __ __ 

$$$$
