DB01556
 OpenBabel03191400402D

 12 12  0  0  0  0  0  0  0  0999 V2000
    2.3645   -2.3183    0.0000 Cl   0  0  0  0  0  0  0  0  0  0  0  0
    3.7935    1.8068    0.0000 N    0  0  0  0  0  0  0  0  0  0  0  0
    3.0791    1.3943    0.0000 C    0  0  0  0  0  0  0  0  0  0  0  0
    2.3645    0.9818    0.0000 C    0  0  0  0  0  0  0  0  0  0  0  0
    2.6665    2.1087    0.0000 C    0  0  0  0  0  0  0  0  0  0  0  0
    3.4916    0.6798    0.0000 C    0  0  0  0  0  0  0  0  0  0  0  0
    2.3645    0.1568    0.0000 C    0  0  0  0  0  0  0  0  0  0  0  0
    3.0791   -0.2558    0.0000 C    0  0  0  0  0  0  0  0  0  0  0  0
    1.6500   -0.2558    0.0000 C    0  0  0  0  0  0  0  0  0  0  0  0
    3.0791   -1.0808    0.0000 C    0  0  0  0  0  0  0  0  0  0  0  0
    1.6500   -1.0808    0.0000 C    0  0  0  0  0  0  0  0  0  0  0  0
    2.3645   -1.4933    0.0000 C    0  0  0  0  0  0  0  0  0  0  0  0
  1 12  1  0  0  0  0
  2  3  1  0  0  0  0
  3  4  1  0  0  0  0
  3  5  1  0  0  0  0
  3  6  1  0  0  0  0
  4  7  1  0  0  0  0
  7  8  2  0  0  0  0
  7  9  1  0  0  0  0
  8 10  1  0  0  0  0
  9 11  2  0  0  0  0
 10 12  2  0  0  0  0
 11 12  1  0  0  0  0
M  END
> <DRUGBANK_ID>
DB01556

> <DRUG_GROUPS>
illicit; experimental; withdrawn

> <GENERIC_NAME>
Chlorphentermine

> <SYNONYMS>
1-(4-Chlorophenyl)-2-methyl-2-propanamine; 1-(p-Chlorophenyl)-2-methyl-2-aminopropane; 1-(p-Chlorophenyl)-2-methyl-2-aminopropane hydrochloride; 4-Chloro-alpha,alpha-dimethylbenzeneethanamine; 4-Chloro-alpha,alpha-dimethylphenethylamine; alpha,alpha-dimethyl-p-chlorophenethylamine; Beta-(p-chlorophenyl)-alpha,alpha-dimethylethylamine; Chlorophentermine; Chlorophentermine hydrochloride; Chlorpentermine; Chlorphenteramine; Chlorphentermine hydrochloride; Chlorphenterminum [inn-latin]; Chlorphenterminum hydrochloride; Clorfentermina [inn-spanish]; P-chloro-alpha,alpha-dimethylphenethylamine; P-chlorphentermine hydrochloride

> <BRANDS>
Apsedon; Clomina; Desopimon; Dezopimon; Effox; Lucofen; Lucofene; Nilgana

> <CHEMICAL_FORMULA>
C10H14ClN

> <MOLECULAR_WEIGHT>
183.678

> <EXACT_MASS>
183.08147716

> <IUPAC_NAME>
1-(4-chlorophenyl)-2-methylpropan-2-amine

> <INCHI_IDENTIFIER>
InChI=1S/C10H14ClN/c1-10(2,12)7-8-3-5-9(11)6-4-8/h3-6H,7,12H2,1-2H3

> <INCHI_KEY>
InChIKey=ZCKAMNXUHHNZLN-UHFFFAOYSA-N

> <SMILES>
CC(C)(N)CC1=CC=C(Cl)C=C1

> <JCHEM_ACCEPTOR_COUNT>
1

> <JCHEM_DONOR_COUNT>
1

> <JCHEM_BASIC_PKA>
10.24

> <JCHEM_PHYSIOLOGICAL_CHARGE>
1

> <ALOGPS_LOGP>
2.81

> <JCHEM_LOGP>
2.69

> <ALOGPS_LOGS>
-3.2

> <JCHEM_POLARIZABILITY>
20.19

> <JCHEM_POLAR_SURFACE_AREA>
26.02

> <JCHEM_REFRACTIVITY>
53.15

> <JCHEM_ROTATABLE_BOND_COUNT>
2

> <ALOGPS_SOLUBILITY>
1.05e-01 g/l __ __ 

$$$$
