DB02212
 OpenBabel03181419112D

  9  8  0  0  0  0  0  0  0  0999 V2000
   -0.6039   -1.6500    0.0000 O   0  0  0  0  0  0  0  0  0  0  0  0
    0.1105   -1.2375    0.0000 P   0  0  2  0  0  0  0  0  0  0  0  0
    0.5230   -1.9520    0.0000 O   0  5  0  0  0  0  0  0  0  0  0  0
   -0.3020   -0.5230    0.0000 O   0  0  0  0  0  0  0  0  0  0  0  0
    0.8250   -0.8250    0.0000 O   0  0  0  0  0  0  0  0  0  0  0  0
    0.8250    0.0000    0.0000 P   0  0  1  0  0  0  0  0  0  0  0  0
    0.8250    0.8250    0.0000 O   0  0  0  0  0  0  0  0  0  0  0  0
    1.6500    0.0000    0.0000 O   0  5  0  0  0  0  0  0  0  0  0  0
    0.0000    0.0000    0.0000 O   0  0  0  0  0  0  0  0  0  0  0  0
  2  1  1  6  0  0  0
  2  3  1  0  0  0  0
  2  4  2  0  0  0  0
  2  5  1  0  0  0  0
  6  5  1  1  0  0  0
  6  7  1  0  0  0  0
  6  8  1  0  0  0  0
  6  9  2  0  0  0  0
M  END
> <DRUGBANK_ID>
DB02212

> <DRUG_GROUPS>
experimental

> <GENERIC_NAME>
Pyrophosphate 2-

> <CHEMICAL_FORMULA>
H2O7P2

> <MOLECULAR_WEIGHT>
175.9592

> <EXACT_MASS>
175.927575442

> <IUPAC_NAME>
hydrogen (hydrogen phosphonatooxy)phosphonate

> <INCHI_IDENTIFIER>
InChI=1S/H4O7P2/c1-8(2,3)7-9(4,5)6/h(H2,1,2,3)(H2,4,5,6)/p-2

> <INCHI_KEY>
InChIKey=XPPKVPWEQAFLFU-UHFFFAOYSA-L

> <SMILES>
O[P@]([O-])(=O)O[P@@](O)([O-])=O

> <JCHEM_ACCEPTOR_COUNT>
6

> <JCHEM_DONOR_COUNT>
2

> <JCHEM_ACIDIC_PKA>
1.7

> <JCHEM_PHYSIOLOGICAL_CHARGE>
-2

> <JCHEM_LOGP>
-1.4

> <JCHEM_POLARIZABILITY>
9.68

> <JCHEM_POLAR_SURFACE_AREA>
129.95

> <JCHEM_REFRACTIVITY>
23.28

> <JCHEM_ROTATABLE_BOND_COUNT>
2 __ __ 

$$$$
