DB05109
 OpenBabel03181418042D

 59 67  0  0  1  0  0  0  0  0999 V2000
    5.5627   -0.7354    0.0000 S   0  0  0  0  0  0  0  0  0  0  0  0
    3.6430    1.2274    0.0000 O   0  0  0  0  0  0  0  0  0  0  0  0
    3.9079    0.8260    0.0000 O   0  0  0  0  0  0  0  0  0  0  0  0
    2.0163   -1.6985    0.0000 O   0  0  0  0  0  0  0  0  0  0  0  0
    5.1378   -2.8885    0.0000 O   0  0  0  0  0  0  0  0  0  0  0  0
    6.9337   -1.5633    0.0000 O   0  0  0  0  0  0  0  0  0  0  0  0
    2.1502   -3.0752    0.0000 O   0  0  0  0  0  0  0  0  0  0  0  0
    8.4438   -2.1564    0.0000 O   0  0  0  0  0  0  0  0  0  0  0  0
    4.7193    1.8108    0.0000 O   0  0  0  0  0  0  0  0  0  0  0  0
    3.3133    2.6123    0.0000 O   0  0  0  0  0  0  0  0  0  0  0  0
    4.5944   -4.1482    0.0000 O   0  0  0  0  0  0  0  0  0  0  0  0
    4.4266    3.7923    0.0000 O   0  0  0  0  0  0  0  0  0  0  0  0
    4.1489   -0.0903    0.0000 N   0  0  3  0  0  0  0  0  0  0  0  0
    5.7099    2.1155    0.0000 N   0  0  0  0  0  0  0  0  0  0  0  0
    6.1308    0.5247    0.0000 N   0  0  0  0  0  0  0  0  0  0  0  0
    4.8724   -0.4125    0.0000 C   0  0  2  0  0  0  0  0  0  0  0  0
    6.0884    0.5721    0.0000 C   0  0  1  0  0  0  0  0  0  0  0  0
    6.2933    1.3371    0.0000 C   0  0  2  0  0  0  0  0  0  0  0  0
    4.2316    0.6973    0.0000 C   0  0  2  0  0  0  0  0  0  0  0  0
    4.9713   -1.2316    0.0000 C   0  0  1  0  0  0  0  0  0  0  0  0
    3.4740   -0.5649    0.0000 C   0  0  2  0  0  0  0  0  0  0  0  0
    7.7702    0.9826    0.0000 C   0  0  0  0  0  0  0  0  0  0  0  0
    7.4385   -0.2553    0.0000 C   0  0  0  0  0  0  0  0  0  0  0  0
    4.3076   -1.7216    0.0000 C   0  0  0  0  0  0  0  0  0  0  0  0
    3.5539   -1.3861    0.0000 C   0  0  0  0  0  0  0  0  0  0  0  0
    8.0541    0.2432    0.0000 C   0  0  0  0  0  0  0  0  0  0  0  0
    3.4469    0.2066    0.0000 C   0  0  0  0  0  0  0  0  0  0  0  0
    6.1059    2.8014    0.0000 C   0  0  0  0  0  0  0  0  0  0  0  0
    7.5550   -1.0720    0.0000 C   0  0  0  0  0  0  0  0  0  0  0  0
    2.8509   -1.8804    0.0000 C   0  0  0  0  0  0  0  0  0  0  0  0
    4.4106   -2.5749    0.0000 C   0  0  0  0  0  0  0  0  0  0  0  0
    8.8288   -0.0406    0.0000 C   0  0  0  0  0  0  0  0  0  0  0  0
    5.7146    0.0215    0.0000 C   0  0  0  0  0  0  0  0  0  0  0  0
    5.3600    0.7075    0.0000 C   0  0  1  0  0  0  0  0  0  0  0  0
    2.9342   -2.7357    0.0000 C   0  0  0  0  0  0  0  0  0  0  0  0
    3.7192   -3.0853    0.0000 C   0  0  0  0  0  0  0  0  0  0  0  0
    8.3229   -1.3736    0.0000 C   0  0  0  0  0  0  0  0  0  0  0  0
    8.9640   -0.8545    0.0000 C   0  0  0  0  0  0  0  0  0  0  0  0
    4.6548    1.0214    0.0000 C   0  0  0  0  0  0  0  0  0  0  0  0
    5.1330    1.4663    0.0000 C   0  0  0  0  0  0  0  0  0  0  0  0
    1.5841   -2.4355    0.0000 C   0  0  0  0  0  0  0  0  0  0  0  0
    3.8052   -3.8726    0.0000 C   0  0  0  0  0  0  0  0  0  0  0  0
    6.6743    1.1008    0.0000 C   0  0  0  0  0  0  0  0  0  0  0  0
    5.6765    2.0423    0.0000 C   0  0  0  0  0  0  0  0  0  0  0  0
    9.7046   -1.1354    0.0000 C   0  0  0  0  0  0  0  0  0  0  0  0
    6.4472    1.8596    0.0000 C   0  0  0  0  0  0  0  0  0  0  0  0
    4.3274    1.6441    0.0000 C   0  0  0  0  0  0  0  0  0  0  0  0
    5.2297   -3.6753    0.0000 C   0  0  0  0  0  0  0  0  0  0  0  0
    5.4521    2.8362    0.0000 C   0  0  0  0  0  0  0  0  0  0  0  0
    4.0846    2.4326    0.0000 C   0  0  0  0  0  0  0  0  0  0  0  0
    9.1821   -2.4431    0.0000 C   0  0  0  0  0  0  0  0  0  0  0  0
    4.6509    3.0327    0.0000 C   0  0  0  0  0  0  0  0  0  0  0  0
    5.9569   -3.9890    0.0000 C   0  0  0  0  0  0  0  0  0  0  0  0
    3.0832    3.3702    0.0000 C   0  0  0  0  0  0  0  0  0  0  0  0
    5.2448   -0.9252    0.0000 H   0  0  0  0  0  0  0  0  0  0  0  0
    6.2523   -0.0399    0.0000 H   0  0  0  0  0  0  0  0  0  0  0  0
    6.8676    1.6049    0.0000 H   0  0  0  0  0  0  0  0  0  0  0  0
    5.0472   -1.8607    0.0000 H   0  0  0  0  0  0  0  0  0  0  0  0
    3.1766   -1.1245    0.0000 H   0  0  0  0  0  0  0  0  0  0  0  0
  1 20  1  0  0  0  0
  1 33  1  0  0  0  0
  3 27  1  0  0  0  0
  3 39  1  0  0  0  0
  4 30  1  0  0  0  0
  4 41  1  0  0  0  0
  5 31  1  0  0  0  0
  5 48  1  0  0  0  0
  6 29  1  0  0  0  0
  7 35  1  0  0  0  0
  7 41  1  0  0  0  0
  8 37  1  0  0  0  0
  8 51  1  0  0  0  0
  9 39  2  0  0  0  0
 10 50  1  0  0  0  0
 10 54  1  0  0  0  0
 11 48  2  0  0  0  0
 12 52  1  0  0  0  0
 13 16  1  0  0  0  0
 13 19  1  0  0  0  0
 13 21  1  0  0  0  0
 14 17  1  0  0  0  0
 14 18  1  0  0  0  0
 14 28  1  0  0  0  0
 15 43  1  0  0  0  0
 16 17  1  0  0  0  0
 16 20  1  0  0  0  0
 16 55  1  1  0  0  0
 17 23  1  0  0  0  0
 17 56  1  1  0  0  0
 18 19  1  0  0  0  0
 18 22  1  0  0  0  0
 18 57  1  6  0  0  0
 19  2  1  1  0  0  0
 20 24  1  0  0  0  0
 20 58  1  1  0  0  0
 21 25  1  0  0  0  0
 21 27  1  0  0  0  0
 21 59  1  1  0  0  0
 22 26  1  0  0  0  0
 23 26  2  0  0  0  0
 23 29  1  0  0  0  0
 24 25  1  0  0  0  0
 24 31  2  0  0  0  0
 25 30  2  0  0  0  0
 26 32  1  0  0  0  0
 29 37  2  0  0  0  0
 30 35  1  0  0  0  0
 31 36  1  0  0  0  0
 32 38  2  0  0  0  0
 33 34  1  0  0  0  0
 34 15  1  1  0  0  0
 34 39  1  0  0  0  0
 34 40  1  0  0  0  0
 35 36  2  0  0  0  0
 36 42  1  0  0  0  0
 37 38  1  0  0  0  0
 38 45  1  0  0  0  0
 40 44  1  0  0  0  0
 40 47  2  0  0  0  0
 43 46  1  0  0  0  0
 44 46  1  0  0  0  0
 44 49  2  0  0  0  0
 47 50  1  0  0  0  0
 48 53  1  0  0  0  0
 49 52  1  0  0  0  0
 50 52  2  0  0  0  0
M  END
> <DRUGBANK_ID>
DB05109

> <DRUG_GROUPS>
approved; investigational

> <GENERIC_NAME>
Trabectedin

> <SYNONYMS>
Ecteinascidin; Ecteinascidin 743; ET-743; ET743; NSC 684766

> <BRANDS>
Yondelis

> <CHEMICAL_FORMULA>
C39H43N3O11S

> <MOLECULAR_WEIGHT>
761.837

> <EXACT_MASS>
761.261829923

> <IUPAC_NAME>
(1R,2R,3R,11S,12S,14R,26R)-5,6',12-trihydroxy-6,7'-dimethoxy-7,21,30-trimethyl-27-oxo-3',4'-dihydro-2'H-17,19,28-trioxa-24-thia-13,30-diazaspiro[heptacyclo[12.9.6.1^{3,11}.0^{2,13}.0^{4,9}.0^{15,23}.0^{16,20}]triacontane-26,1'-isoquinoline]-4(9),5,7,15(23),16(20),21-hexaen-22-yl acetate

> <INCHI_IDENTIFIER>
InChI=1S/C39H43N3O11S/c1-16-9-20-10-22-37(46)42-23-13-50-38(47)39(21-12-25(48-5)24(44)11-19(21)7-8-40-39)14-54-36(30(42)29(41(22)4)26(20)31(45)32(16)49-6)28-27(23)35-34(51-15-52-35)17(2)33(28)53-18(3)43/h9,11-12,22-23,29-30,36-37,40,44-46H,7-8,10,13-15H2,1-6H3/t22-,23-,29+,30+,36+,37-,39+/m0/s1

> <INCHI_KEY>
InChIKey=PKVRCIRHQMSYJX-AIFWHQITSA-N

> <SMILES>
[H][C@@]12CC3=C(C(O)=C(OC)C(C)=C3)[C@@]([H])(N1C)[C@@]1([H])N([C@H]2O)[C@@]2([H])COC(=O)[C@]3(CS[C@]1([H])C1=C(OC(C)=O)C(C)=C4OCOC4=C21)NCCC1=CC(O)=C(OC)C=C31

> <JCHEM_ACCEPTOR_COUNT>
12

> <JCHEM_DONOR_COUNT>
4

> <JCHEM_ACIDIC_PKA>
9.27

> <JCHEM_BASIC_PKA>
7.66

> <JCHEM_PHYSIOLOGICAL_CHARGE>
1

> <ALOGPS_LOGP>
2.04

> <JCHEM_LOGP>
3.99

> <ALOGPS_LOGS>
-3.4

> <JCHEM_POLARIZABILITY>
77.09

> <JCHEM_POLAR_SURFACE_AREA>
168.72

> <JCHEM_REFRACTIVITY>
196.92

> <JCHEM_ROTATABLE_BOND_COUNT>
4

> <ALOGPS_SOLUBILITY>
3.28e-01 g/l __ __ 

$$$$
