DB05812
 OpenBabel03181418042D

 29 33  0  0  1  0  0  0  0  0999 V2000
    3.0790   -2.5422    0.0000 O   0  0  0  0  0  0  0  0  0  0  0  0
    2.3693   -1.3020    0.0000 O   0  0  0  0  0  0  0  0  0  0  0  0
    9.6290    1.9659    0.0000 N   0  0  0  0  0  0  0  0  0  0  0  0
    6.0994   -0.8490    0.0000 C   0  0  3  0  0  0  0  0  0  0  0  0
    6.8139   -1.2615    0.0000 C   0  0  3  0  0  0  0  0  0  0  0  0
    7.5284   -0.8490    0.0000 C   0  0  3  0  0  0  0  0  0  0  0  0
    7.5284   -0.0240    0.0000 C   0  0  2  0  0  0  0  0  0  0  0  0
    5.3487   -1.2671    0.0000 C   0  0  2  0  0  0  0  0  0  0  0  0
    6.0994   -0.0240    0.0000 C   0  0  0  0  0  0  0  0  0  0  0  0
    6.8139    0.3885    0.0000 C   0  0  0  0  0  0  0  0  0  0  0  0
    6.8272   -2.1208    0.0000 C   0  0  0  0  0  0  0  0  0  0  0  0
    8.3090   -1.1004    0.0000 C   0  0  0  0  0  0  0  0  0  0  0  0
    5.3420   -2.1265    0.0000 C   0  0  0  0  0  0  0  0  0  0  0  0
    4.5840   -0.8018    0.0000 C   0  0  0  0  0  0  0  0  0  0  0  0
    8.3090    0.2275    0.0000 C   0  0  0  0  0  0  0  0  0  0  0  0
    6.0862   -2.5562    0.0000 C   0  0  0  0  0  0  0  0  0  0  0  0
    7.5284    0.8010    0.0000 C   0  0  0  0  0  0  0  0  0  0  0  0
    5.3550   -0.4421    0.0000 C   0  0  0  0  0  0  0  0  0  0  0  0
    8.7906   -0.4365    0.0000 C   0  0  0  0  0  0  0  0  0  0  0  0
    4.5703   -2.5800    0.0000 C   0  0  0  0  0  0  0  0  0  0  0  0
    3.8019   -1.2374    0.0000 C   0  0  0  0  0  0  0  0  0  0  0  0
    3.7951   -2.1324    0.0000 C   0  0  2  0  0  0  0  0  0  0  0  0
    8.5653    1.0116    0.0000 C   0  0  0  0  0  0  0  0  0  0  0  0
    8.0144    1.6257    0.0000 C   0  0  0  0  0  0  0  0  0  0  0  0
    9.3726    1.1818    0.0000 C   0  0  0  0  0  0  0  0  0  0  0  0
    2.3661   -2.1270    0.0000 C   0  0  0  0  0  0  0  0  0  0  0  0
    8.2706    2.4099    0.0000 C   0  0  0  0  0  0  0  0  0  0  0  0
    9.0779    2.5800    0.0000 C   0  0  0  0  0  0  0  0  0  0  0  0
    1.6500   -2.5367    0.0000 C   0  0  0  0  0  0  0  0  0  0  0  0
  1 26  1  0  0  0  0
  2 26  2  0  0  0  0
  3 25  1  0  0  0  0
  3 28  2  0  0  0  0
  4  5  1  0  0  0  0
  4  8  1  0  0  0  0
  4  9  1  0  0  0  0
  5  6  1  0  0  0  0
  5 11  1  0  0  0  0
  6  7  1  0  0  0  0
  6 12  1  0  0  0  0
  7 10  1  0  0  0  0
  7 15  1  0  0  0  0
  7 17  1  1  0  0  0
  8 13  1  0  0  0  0
  8 14  1  0  0  0  0
  8 18  1  1  0  0  0
  9 10  1  0  0  0  0
 11 16  1  0  0  0  0
 12 19  1  0  0  0  0
 13 16  2  0  0  0  0
 13 20  1  0  0  0  0
 14 21  1  0  0  0  0
 15 19  2  0  0  0  0
 15 23  1  0  0  0  0
 20 22  1  0  0  0  0
 21 22  1  0  0  0  0
 22  1  1  1  0  0  0
 23 24  1  0  0  0  0
 23 25  2  0  0  0  0
 24 27  2  0  0  0  0
 26 29  1  0  0  0  0
 27 28  1  0  0  0  0
M  END
> <DRUGBANK_ID>
DB05812

> <DRUG_GROUPS>
approved

> <GENERIC_NAME>
Abiraterone

> <SYNONYMS>
CB7630

> <SALTS>
Abiraterone Acetate

> <BRANDS>
Zytiga

> <CHEMICAL_FORMULA>
C26H33NO2

> <MOLECULAR_WEIGHT>
391.5457

> <EXACT_MASS>
391.251129305

> <IUPAC_NAME>
(2R,5S,15S)-2,15-dimethyl-14-(pyridin-3-yl)tetracyclo[8.7.0.0^{2,7}.0^{11,15}]heptadeca-7,13-dien-5-yl acetate

> <INCHI_IDENTIFIER>
InChI=1S/C26H33NO2/c1-17(28)29-20-10-12-25(2)19(15-20)6-7-21-23-9-8-22(18-5-4-14-27-16-18)26(23,3)13-11-24(21)25/h4-6,8,14,16,20-21,23-24H,7,9-13,15H2,1-3H3/t20-,21?,23?,24?,25-,26+/m0/s1

> <INCHI_KEY>
InChIKey=UVIQSJCZCSLXRZ-HMMZIKKISA-N

> <SMILES>
CC(=O)O[C@H]1CC[C@]2(C)C3CC[C@@]4(C)C(CC=C4C4=CN=CC=C4)C3CC=C2C1

> <JCHEM_ACCEPTOR_COUNT>
2

> <JCHEM_DONOR_COUNT>
0

> <JCHEM_BASIC_PKA>
4.81

> <JCHEM_PHYSIOLOGICAL_CHARGE>
0

> <ALOGPS_LOGP>
5.63

> <JCHEM_LOGP>
4.41

> <ALOGPS_LOGS>
-5.6

> <JCHEM_POLARIZABILITY>
46.58

> <JCHEM_POLAR_SURFACE_AREA>
39.19

> <JCHEM_REFRACTIVITY>
116.45

> <JCHEM_ROTATABLE_BOND_COUNT>
3

> <ALOGPS_SOLUBILITY>
1.01e-03 g/l __ __ 

$$$$
