DB06728
 OpenBabel03181419112D

  7  7  0  0  0  0  0  0  0  0999 V2000
   -0.1105    0.5009    0.0000 C   0  0  0  0  0  0  0  0  0  0  0  0
   -0.8250    0.9134    0.0000 C   0  0  0  0  0  0  0  0  0  0  0  0
   -1.5395    0.5009    0.0000 C   0  0  0  0  0  0  0  0  0  0  0  0
   -1.5395   -0.3241    0.0000 C   0  0  0  0  0  0  0  0  0  0  0  0
   -0.8250   -0.7366    0.0000 C   0  0  0  0  0  0  0  0  0  0  0  0
   -0.1105   -0.3241    0.0000 C   0  0  0  0  0  0  0  0  0  0  0  0
    0.6040    0.9134    0.0000 N   0  0  0  0  0  0  0  0  0  0  0  0
  1  2  1  0  0  0  0
  1  6  2  0  0  0  0
  1  7  1  0  0  0  0
  2  3  2  0  0  0  0
  3  4  1  0  0  0  0
  4  5  2  0  0  0  0
  5  6  1  0  0  0  0
M  END
> <DRUGBANK_ID>
DB06728

> <DRUG_GROUPS>
experimental

> <GENERIC_NAME>
Aniline

> <SYNONYMS>
aminobenzene; Aminophen; Anilin; Anilin [czech]; Anilina; Aniline hydrobromide; Aniline oil; Aniline oil, phenylamine; Aniline, acs; Aniline(S#299)-Liq; Anilinum; Anyvim; Arylamine; Benzamine; Benzenamine; Benzene, amino; Benzene,amino (aniline); Benzeneamine; Benzidam; BIDD:ER0581; Blue oil; C.I. Oxidation base 1; Caswell No. 051C; CI Oxidation Base 1; Cyanol; D'aniline; HSDB 43; Huile d'aniline; Huile d'aniline [french]; Krystallin; Kyanol; nchembio.257-comp9; phenylamine; Phenyleneamine; RCRA waste no. U012; Rcra waste number U012

> <CHEMICAL_FORMULA>
C6H7N

> <MOLECULAR_WEIGHT>
93.1265

> <EXACT_MASS>
93.057849229

> <IUPAC_NAME>
aniline

> <INCHI_IDENTIFIER>
InChI=1S/C6H7N/c7-6-4-2-1-3-5-6/h1-5H,7H2

> <INCHI_KEY>
InChIKey=PAYRUJLWNCNPSJ-UHFFFAOYSA-N

> <SMILES>
NC1=CC=CC=C1

> <JCHEM_ACCEPTOR_COUNT>
1

> <JCHEM_DONOR_COUNT>
1

> <JCHEM_BASIC_PKA>
4.64

> <JCHEM_PHYSIOLOGICAL_CHARGE>
0

> <ALOGPS_LOGP>
0.89

> <JCHEM_LOGP>
1.14

> <ALOGPS_LOGS>
-0.71

> <JCHEM_POLARIZABILITY>
10.29

> <JCHEM_POLAR_SURFACE_AREA>
26.02

> <JCHEM_REFRACTIVITY>
30.76

> <JCHEM_ROTATABLE_BOND_COUNT>
0

> <ALOGPS_SOLUBILITY>
1.80e+01 g/l __ __ 

$$$$
