DB06150
 OpenBabel03181418042D

 21 22  0  0  0  0  0  0  0  0999 V2000
    4.9509   -0.7755    0.0000 S   0  0  0  0  0  0  0  0  0  0  0  0
    4.5384   -1.4900    0.0000 O   0  0  0  0  0  0  0  0  0  0  0  0
    5.3634   -0.0611    0.0000 O   0  0  0  0  0  0  0  0  0  0  0  0
    7.0944    1.2870    0.0000 O   0  0  0  0  0  0  0  0  0  0  0  0
    8.5234   -1.1880    0.0000 O   0  0  0  0  0  0  0  0  0  0  0  0
    5.6655   -1.1880    0.0000 N   0  0  0  0  0  0  0  0  0  0  0  0
    7.0944   -1.1880    0.0000 N   0  0  0  0  0  0  0  0  0  0  0  0
    2.0930    0.8745    0.0000 N   0  0  0  0  0  0  0  0  0  0  0  0
    7.8089    0.0495    0.0000 N   0  0  0  0  0  0  0  0  0  0  0  0
    4.2365   -0.3630    0.0000 C   0  0  0  0  0  0  0  0  0  0  0  0
    4.2365    0.4620    0.0000 C   0  0  0  0  0  0  0  0  0  0  0  0
    3.5220   -0.7755    0.0000 C   0  0  0  0  0  0  0  0  0  0  0  0
    6.3799   -0.7755    0.0000 C   0  0  0  0  0  0  0  0  0  0  0  0
    2.8075    0.4620    0.0000 C   0  0  0  0  0  0  0  0  0  0  0  0
    3.5220    0.8745    0.0000 C   0  0  0  0  0  0  0  0  0  0  0  0
    2.8075   -0.3630    0.0000 C   0  0  0  0  0  0  0  0  0  0  0  0
    6.3799    0.0495    0.0000 C   0  0  0  0  0  0  0  0  0  0  0  0
    7.0944    0.4620    0.0000 C   0  0  0  0  0  0  0  0  0  0  0  0
    7.8089   -0.7755    0.0000 C   0  0  0  0  0  0  0  0  0  0  0  0
    7.8089    1.6995    0.0000 C   0  0  0  0  0  0  0  0  0  0  0  0
    9.2379   -0.7755    0.0000 C   0  0  0  0  0  0  0  0  0  0  0  0
  1  2  2  0  0  0  0
  1  3  2  0  0  0  0
  1  6  1  0  0  0  0
  1 10  1  0  0  0  0
  4 18  1  0  0  0  0
  4 20  1  0  0  0  0
  5 19  1  0  0  0  0
  5 21  1  0  0  0  0
  6 13  1  0  0  0  0
  7 13  1  0  0  0  0
  7 19  2  0  0  0  0
  8 14  1  0  0  0  0
  9 18  2  0  0  0  0
  9 19  1  0  0  0  0
 10 11  2  0  0  0  0
 10 12  1  0  0  0  0
 11 15  1  0  0  0  0
 12 16  2  0  0  0  0
 13 17  2  0  0  0  0
 14 15  2  0  0  0  0
 14 16  1  0  0  0  0
 17 18  1  0  0  0  0
M  END
> <DRUGBANK_ID>
DB06150

> <DRUG_GROUPS>
approved

> <GENERIC_NAME>
Sulfadimethoxine

> <SYNONYMS>
Sulphadimethoxine

> <BRANDS>
Agribon; Albon; Di-Methox

> <CHEMICAL_FORMULA>
C12H14N4O4S

> <MOLECULAR_WEIGHT>
310.329

> <EXACT_MASS>
310.073575646

> <IUPAC_NAME>
4-amino-N-(2,6-dimethoxypyrimidin-4-yl)benzene-1-sulfonamide

> <INCHI_IDENTIFIER>
InChI=1S/C12H14N4O4S/c1-19-11-7-10(14-12(15-11)20-2)16-21(17,18)9-5-3-8(13)4-6-9/h3-7H,13H2,1-2H3,(H,14,15,16)

> <INCHI_KEY>
InChIKey=ZZORFUFYDOWNEF-UHFFFAOYSA-N

> <SMILES>
COC1=NC(OC)=NC(NS(=O)(=O)C2=CC=C(N)C=C2)=C1

> <JCHEM_ACCEPTOR_COUNT>
7

> <JCHEM_DONOR_COUNT>
2

> <JCHEM_ACIDIC_PKA>
6.91

> <JCHEM_BASIC_PKA>
1.95

> <JCHEM_PHYSIOLOGICAL_CHARGE>
-1

> <ALOGPS_LOGP>
1.08

> <JCHEM_LOGP>
1.26

> <ALOGPS_LOGS>
-3

> <JCHEM_POLARIZABILITY>
30.41

> <JCHEM_POLAR_SURFACE_AREA>
116.43

> <JCHEM_REFRACTIVITY>
77.75

> <JCHEM_ROTATABLE_BOND_COUNT>
4

> <ALOGPS_SOLUBILITY>
2.78e-01 g/l __ __ 

$$$$
