DB07370
 OpenBabel03181419112D

 27 28  0  0  0  0  0  0  0  0999 V2000
   -1.2204    2.5152    0.0000 O   0  0  0  0  0  0  0  0  0  0  0  0
   -1.4753    1.7306    0.0000 C   0  0  2  0  0  0  0  0  0  0  0  0
   -0.9233    1.1175    0.0000 C   0  0  1  0  0  0  0  0  0  0  0  0
   -0.0983    1.1175    0.0000 C   0  0  0  0  0  0  0  0  0  0  0  0
    0.1566    0.3329    0.0000 S   0  0  0  0  0  0  0  0  0  0  0  0
   -2.2823    1.5590    0.0000 C   0  0  2  0  0  0  0  0  0  0  0  0
   -2.8343    2.1721    0.0000 O   0  0  0  0  0  0  0  0  0  0  0  0
   -2.5372    0.7744    0.0000 C   0  0  1  0  0  0  0  0  0  0  0  0
   -3.3442    0.6029    0.0000 O   0  0  0  0  0  0  0  0  0  0  0  0
   -1.9852    0.1613    0.0000 C   0  0  2  0  0  0  0  0  0  0  0  0
   -2.2401   -0.6233    0.0000 O   0  0  0  0  0  0  0  0  0  0  0  0
   -1.1782    0.3329    0.0000 N   0  0  0  0  0  0  0  0  0  0  0  0
   -0.5108   -0.1521    0.0000 C   0  0  0  0  0  0  0  0  0  0  0  0
   -0.5108   -0.9771    0.0000 N   0  0  0  0  0  0  0  0  0  0  0  0
    0.2037   -1.3896    0.0000 C   0  0  0  0  0  0  0  0  0  0  0  0
    0.9182   -0.9771    0.0000 C   0  0  0  0  0  0  0  0  0  0  0  0
    1.6326   -1.3896    0.0000 C   0  0  0  0  0  0  0  0  0  0  0  0
    2.3471   -0.9771    0.0000 C   0  0  0  0  0  0  0  0  0  0  0  0
    3.0616   -1.3896    0.0000 C   0  0  0  0  0  0  0  0  0  0  0  0
    3.7760   -0.9771    0.0000 C   0  0  0  0  0  0  0  0  0  0  0  0
    4.4905   -1.3896    0.0000 C   0  0  0  0  0  0  0  0  0  0  0  0
    5.2050   -0.9771    0.0000 C   0  0  0  0  0  0  0  0  0  0  0  0
   -0.9042    1.8520    0.0000 H   0  0  0  0  0  0  0  0  0  0  0  0
   -0.6858    1.6509    0.0000 H   0  0  0  0  0  0  0  0  0  0  0  0
   -2.1019    2.1144    0.0000 H   0  0  0  0  0  0  0  0  0  0  0  0
   -2.9280    1.2084    0.0000 H   0  0  0  0  0  0  0  0  0  0  0  0
   -2.5564    0.0399    0.0000 H   0  0  0  0  0  0  0  0  0  0  0  0
  2  1  1  0  0  0  0
  2 23  1  1  0  0  0
  2  3  1  0  0  0  0
  2  6  1  0  0  0  0
  3 24  1  6  0  0  0
  3  4  1  0  0  0  0
  3 12  1  0  0  0  0
  4  5  1  0  0  0  0
  5 13  1  0  0  0  0
  6 25  1  6  0  0  0
  6  7  1  0  0  0  0
  6  8  1  0  0  0  0
  8 26  1  1  0  0  0
  8  9  1  0  0  0  0
  8 10  1  0  0  0  0
 10 27  1  6  0  0  0
 10 11  1  0  0  0  0
 10 12  1  0  0  0  0
 12 13  1  0  0  0  0
 13 14  2  0  0  0  0
 14 15  1  0  0  0  0
 15 16  1  0  0  0  0
 16 17  1  0  0  0  0
 17 18  1  0  0  0  0
 18 19  1  0  0  0  0
 19 20  1  0  0  0  0
 20 21  1  0  0  0  0
 21 22  1  0  0  0  0
M  END
> <DRUGBANK_ID>
DB07370

> <DRUG_GROUPS>
experimental

> <GENERIC_NAME>
(3Z,5S,6R,7S,8R,8aS)-3-(octylimino)hexahydro[1,3]thiazolo[3,4-a]pyridine-5,6,7,8-tetrol

> <CHEMICAL_FORMULA>
C15H28N2O4S

> <MOLECULAR_WEIGHT>
332.459

> <EXACT_MASS>
332.176978084

> <IUPAC_NAME>
(3Z,5S,6R,7S,8R,8aS)-3-(octylimino)-hexahydro-1H-[1,3]thiazolo[3,4-a]pyridine-5,6,7,8-tetrol

> <INCHI_IDENTIFIER>
InChI=1S/C15H28N2O4S/c1-2-3-4-5-6-7-8-16-15-17-10(9-22-15)11(18)12(19)13(20)14(17)21/h10-14,18-21H,2-9H2,1H3/b16-15-/t10-,11-,12+,13-,14+/m1/s1

> <INCHI_KEY>
InChIKey=HXWFEIXEWVGTGU-KRIYVDMXSA-N

> <SMILES>
[H][C@]12CS\C(=N/CCCCCCCC)N1[C@@]([H])(O)[C@]([H])(O)[C@@]([H])(O)[C@]2([H])O

> <JCHEM_ACCEPTOR_COUNT>
6

> <JCHEM_DONOR_COUNT>
4

> <JCHEM_ACIDIC_PKA>
12.18

> <JCHEM_BASIC_PKA>
4.18

> <JCHEM_PHYSIOLOGICAL_CHARGE>
0

> <ALOGPS_LOGP>
1.32

> <JCHEM_LOGP>
1.48

> <ALOGPS_LOGS>
-2.5

> <JCHEM_POLARIZABILITY>
37.53

> <JCHEM_POLAR_SURFACE_AREA>
96.52

> <JCHEM_REFRACTIVITY>
86.66

> <JCHEM_ROTATABLE_BOND_COUNT>
7

> <ALOGPS_SOLUBILITY>
1.18e+00 g/l __ __ 

$$$$
