DB08483
 OpenBabel03181419112D

 32 35  0  0  0  0  0  0  0  0999 V2000
   -1.2015    0.7137    0.0000 C   0  0  0  0  0  0  0  0  0  0  0  0
   -1.0299    1.5207    0.0000 C   0  0  0  0  0  0  0  0  0  0  0  0
   -1.5820    2.1337    0.0000 O   0  0  0  0  0  0  0  0  0  0  0  0
   -1.1695    2.8482    0.0000 C   0  0  0  0  0  0  0  0  0  0  0  0
   -1.5050    3.6019    0.0000 C   0  0  0  0  0  0  0  0  0  0  0  0
   -2.3255    3.6881    0.0000 C   0  0  0  0  0  0  0  0  0  0  0  0
   -2.6611    4.4418    0.0000 C   0  0  0  0  0  0  0  0  0  0  0  0
   -2.1761    5.1092    0.0000 C   0  0  0  0  0  0  0  0  0  0  0  0
   -1.3557    5.0230    0.0000 C   0  0  0  0  0  0  0  0  0  0  0  0
   -1.0201    4.2693    0.0000 C   0  0  0  0  0  0  0  0  0  0  0  0
   -0.3625    2.6767    0.0000 N   0  0  0  0  0  0  0  0  0  0  0  0
   -0.2763    1.8562    0.0000 C   0  0  0  0  0  0  0  0  0  0  0  0
    0.4382    1.4437    0.0000 C   0  0  0  0  0  0  0  0  0  0  0  0
    0.4382    0.6187    0.0000 C   0  0  0  0  0  0  0  0  0  0  0  0
    1.1527    0.2062    0.0000 O   0  0  0  0  0  0  0  0  0  0  0  0
    1.1527   -0.6188    0.0000 C   0  0  0  0  0  0  0  0  0  0  0  0
    1.8671   -1.0313    0.0000 C   0  0  0  0  0  0  0  0  0  0  0  0
    1.8671   -1.8563    0.0000 C   0  0  0  0  0  0  0  0  0  0  0  0
    0.4382   -1.0313    0.0000 C   0  0  0  0  0  0  0  0  0  0  0  0
   -0.3464   -0.7763    0.0000 C   0  0  0  0  0  0  0  0  0  0  0  0
   -0.8313   -1.4438    0.0000 C   0  0  0  0  0  0  0  0  0  0  0  0
    0.4382   -1.8563    0.0000 C   0  0  0  0  0  0  0  0  0  0  0  0
   -0.3464   -2.1112    0.0000 S   0  0  0  0  0  0  0  0  0  0  0  0
    1.1527   -2.2688    0.0000 C   0  0  0  0  0  0  0  0  0  0  0  0
    1.1527   -3.0938    0.0000 C   0  0  0  0  0  0  0  0  0  0  0  0
    1.8671   -3.5063    0.0000 C   0  0  2  0  0  0  0  0  0  0  0  0
    1.8671   -4.3313    0.0000 O   0  0  0  0  0  0  0  0  0  0  0  0
    2.5816   -4.7438    0.0000 C   0  0  0  0  0  0  0  0  0  0  0  0
    2.5816   -3.0938    0.0000 C   0  0  0  0  0  0  0  0  0  0  0  0
    3.2961   -3.5063    0.0000 O   0  0  0  0  0  0  0  0  0  0  0  0
    2.5816   -2.2688    0.0000 O   0  0  0  0  0  0  0  0  0  0  0  0
    1.3614   -3.7983    0.0000 H   0  0  0  0  0  0  0  0  0  0  0  0
  1  2  1  0  0  0  0
  2  3  1  0  0  0  0
  2 12  2  0  0  0  0
  3  4  1  0  0  0  0
  4  5  1  0  0  0  0
  4 11  2  0  0  0  0
  5  6  2  0  0  0  0
  5 10  1  0  0  0  0
  6  7  1  0  0  0  0
  7  8  2  0  0  0  0
  8  9  1  0  0  0  0
  9 10  2  0  0  0  0
 11 12  1  0  0  0  0
 12 13  1  0  0  0  0
 13 14  1  0  0  0  0
 14 15  1  0  0  0  0
 15 16  1  0  0  0  0
 16 17  2  0  0  0  0
 16 19  1  0  0  0  0
 17 18  1  0  0  0  0
 18 24  2  0  0  0  0
 19 20  1  0  0  0  0
 19 22  2  0  0  0  0
 20 21  2  0  0  0  0
 21 23  1  0  0  0  0
 22 23  1  0  0  0  0
 22 24  1  0  0  0  0
 24 25  1  0  0  0  0
 25 26  1  0  0  0  0
 26 27  1  0  0  0  0
 26 29  1  0  0  0  0
 26 32  1  6  0  0  0
 27 28  1  0  0  0  0
 29 30  1  0  0  0  0
 29 31  2  0  0  0  0
M  END
> <DRUGBANK_ID>
DB08483

> <DRUG_GROUPS>
experimental

> <GENERIC_NAME>
(2S)-2-methoxy-3-{4-[2-(5-methyl-2-phenyl-1,3-oxazol-4-yl)ethoxy]-1-benzothiophen-7-yl}propanoic acid

> <CHEMICAL_FORMULA>
C24H23NO5S

> <MOLECULAR_WEIGHT>
437.508

> <EXACT_MASS>
437.129693541

> <IUPAC_NAME>
(2S)-2-methoxy-3-{4-[2-(5-methyl-2-phenyl-1,3-oxazol-4-yl)ethoxy]-1-benzothiophen-7-yl}propanoic acid

> <INCHI_IDENTIFIER>
InChI=1S/C24H23NO5S/c1-15-19(25-23(30-15)16-6-4-3-5-7-16)10-12-29-20-9-8-17(14-21(28-2)24(26)27)22-18(20)11-13-31-22/h3-9,11,13,21H,10,12,14H2,1-2H3,(H,26,27)/t21-/m0/s1

> <INCHI_KEY>
InChIKey=DAYKLWSKQJBGCS-NRFANRHFSA-N

> <SMILES>
[H][C@@](CC1=CC=C(OCCC2=C(C)OC(=N2)C2=CC=CC=C2)C2=C1SC=C2)(OC)C(O)=O

> <JCHEM_ACCEPTOR_COUNT>
5

> <JCHEM_DONOR_COUNT>
1

> <JCHEM_ACIDIC_PKA>
4.3

> <JCHEM_BASIC_PKA>
0.93

> <JCHEM_PHYSIOLOGICAL_CHARGE>
-1

> <ALOGPS_LOGP>
4.7

> <JCHEM_LOGP>
4.76

> <ALOGPS_LOGS>
-4.7

> <JCHEM_POLARIZABILITY>
46.88

> <JCHEM_POLAR_SURFACE_AREA>
81.79

> <JCHEM_REFRACTIVITY>
127.76

> <JCHEM_ROTATABLE_BOND_COUNT>
9

> <ALOGPS_SOLUBILITY>
7.97e-03 g/l __ __ 

$$$$
