DB08897
 OpenBabel03181418042D

 34 37  0  0  0  0  0  0  0  0999 V2000
   15.5525   -8.3441    0.0000 C    0  0  0  0  0  0  0  0  0  0  0  0
   15.5525   -7.5191    0.0000 C    0  0  0  0  0  0  0  0  0  0  0  0
   14.8100   -8.7567    0.0000 C    0  0  0  0  0  0  0  0  0  0  0  0
   14.1087   -8.3441    0.0000 O    0  0  0  0  0  0  0  0  0  0  0  0
   14.8100   -9.5817    0.0000 O    0  0  0  0  0  0  0  0  0  0  0  0
   13.4075   -8.7567    0.0000 C    0  0  3  0  0  0  0  0  0  0  0  0
   12.6650   -8.3441    0.0000 C    0  0  3  0  0  0  0  0  0  0  0  0
   13.4075   -9.6229    0.0000 C    0  0  0  0  0  0  0  0  0  0  0  0
   11.9224   -8.7567    0.0000 C    0  0  0  0  0  0  0  0  0  0  0  0
   12.9125   -9.0867    0.0000 C    0  0  0  0  0  0  0  0  0  0  0  0
   12.6650  -10.0354    0.0000 N    0  0  3  0  0  0  0  0  0  0  0  0
   11.9224   -9.5817    0.0000 C    0  0  0  0  0  0  0  0  0  0  0  0
   12.4174   -9.2104    0.0000 C    0  0  0  0  0  0  0  0  0  0  0  0
   16.2538   -7.9316    0.0000 O    0  0  0  0  0  0  0  0  0  0  0  0
   12.6650  -10.8604    0.0000 C    0  0  0  0  0  0  0  0  0  0  0  0
   16.2199   -7.0342    0.0000 C    0  0  0  0  0  0  0  0  0  0  0  0
   15.9650   -6.2496    0.0000 C    0  0  0  0  0  0  0  0  0  0  0  0
   15.1400   -6.2496    0.0000 C    0  0  0  0  0  0  0  0  0  0  0  0
   14.8851   -7.0342    0.0000 S    0  0  0  0  0  0  0  0  0  0  0  0
   11.9505  -11.2730    0.0000 C    0  0  0  0  0  0  0  0  0  0  0  0
   11.2460  -10.8661    0.0000 C    0  0  0  0  0  0  0  0  0  0  0  0
   10.5462  -11.2701    0.0000 O    0  0  0  0  0  0  0  0  0  0  0  0
    9.8442  -10.8646    0.0000 C    0  0  0  0  0  0  0  0  0  0  0  0
    9.8442  -10.0356    0.0000 C    0  0  0  0  0  0  0  0  0  0  0  0
    9.1298   -9.6231    0.0000 C    0  0  0  0  0  0  0  0  0  0  0  0
    8.4153  -10.0356    0.0000 C    0  0  0  0  0  0  0  0  0  0  0  0
    8.4153  -10.8646    0.0000 C    0  0  0  0  0  0  0  0  0  0  0  0
    9.1298  -11.2771    0.0000 C    0  0  0  0  0  0  0  0  0  0  0  0
   16.1251   -9.0730    0.0000 C    0  0  0  0  0  0  0  0  0  0  0  0
   16.3963   -9.8460    0.0000 C    0  0  0  0  0  0  0  0  0  0  0  0
   17.2152   -9.8269    0.0000 C    0  0  0  0  0  0  0  0  0  0  0  0
   17.4502   -9.0422    0.0000 C    0  0  0  0  0  0  0  0  0  0  0  0
   16.7764   -8.5762    0.0000 S    0  0  0  0  0  0  0  0  0  0  0  0
    8.9111   -7.2304    0.0000 Br   0  0  0  0  0  0  0  0  0  0  0  0
  1  2  1  0  0  0  0
  1  3  1  0  0  0  0
  1 14  1  0  0  0  0
  1 29  1  0  0  0  0
  2 16  2  0  0  0  0
  2 19  1  0  0  0  0
  3  4  1  0  0  0  0
  3  5  2  0  0  0  0
  4  6  1  0  0  0  0
  6  7  1  0  0  0  0
  6  8  1  0  0  0  0
  7  9  1  0  0  0  0
  7 10  1  0  0  0  0
  8 11  1  0  0  0  0
  9 12  1  0  0  0  0
 10 13  1  0  0  0  0
 11 12  1  0  0  0  0
 11 13  1  0  0  0  0
 11 15  1  0  0  0  0
 15 20  1  0  0  0  0
 16 17  1  0  0  0  0
 17 18  2  0  0  0  0
 18 19  1  0  0  0  0
 20 21  1  0  0  0  0
 21 22  1  0  0  0  0
 22 23  1  0  0  0  0
 23 24  2  0  0  0  0
 23 28  1  0  0  0  0
 24 25  1  0  0  0  0
 25 26  2  0  0  0  0
 26 27  1  0  0  0  0
 27 28  2  0  0  0  0
 29 30  2  0  0  0  0
 29 33  1  0  0  0  0
 30 31  1  0  0  0  0
 31 32  2  0  0  0  0
 32 33  1  0  0  0  0
M  END
> <DRUGBANK_ID>
DB08897

> <DRUG_GROUPS>
approved

> <GENERIC_NAME>
Aclidinium

> <SYNONYMS>
14115700; LAS-34273; LAS-34273 Micronized; LAS-W-330

> <SALTS>
Aclidinium Bromide

> <BRANDS>
Bretaris Genuair; Eklira Genuair ; Tudorza Pressair

> <CHEMICAL_FORMULA>
C26H30BrNO4S2

> <MOLECULAR_WEIGHT>
564.555

> <EXACT_MASS>
563.07996248

> <IUPAC_NAME>
3-{[2-hydroxy-2,2-bis(thiophen-2-yl)acetyl]oxy}-1-(3-phenoxypropyl)-1-azabicyclo[2.2.2]octan-1-ium bromide

> <INCHI_IDENTIFIER>
InChI=1/C26H30NO4S2.BrH/c28-25(26(29,23-9-4-17-32-23)24-10-5-18-33-24)31-22-19-27(14-11-20(22)12-15-27)13-6-16-30-21-7-2-1-3-8-21;/h1-5,7-10,17-18,20,22,29H,6,11-16,19H2;1H/q+1;/p-1

> <INCHI_KEY>
InChIKey=XLAKJQPTOJHYDR-UHFFFAOYNA-M

> <SMILES>
[Br-].OC(C(=O)OC1C[N+]2(CCCOC3=CC=CC=C3)CCC1CC2)(C1=CC=CS1)C1=CC=CS1

> <JCHEM_ACCEPTOR_COUNT>
3

> <JCHEM_DONOR_COUNT>
1

> <JCHEM_ACIDIC_PKA>
10.35

> <JCHEM_BASIC_PKA>
-4.8

> <JCHEM_PHYSIOLOGICAL_CHARGE>
1

> <ALOGPS_LOGP>
2.24

> <JCHEM_LOGP>
0.45

> <ALOGPS_LOGS>
-5.5

> <JCHEM_POLARIZABILITY>
52.16

> <JCHEM_POLAR_SURFACE_AREA>
55.76

> <JCHEM_REFRACTIVITY>
141.33

> <JCHEM_ROTATABLE_BOND_COUNT>
10

> <ALOGPS_SOLUBILITY>
1.90e-03 g/l __ __ 

$$$$
