DB08604
 OpenBabel03181419112D

 17 18  0  0  0  0  0  0  0  0999 V2000
    0.7345    1.9692    0.0000 C    0  0  0  0  0  0  0  0  0  0  0  0
    1.4490    1.5567    0.0000 C    0  0  0  0  0  0  0  0  0  0  0  0
    0.0201    1.5567    0.0000 C    0  0  0  0  0  0  0  0  0  0  0  0
    0.0201    0.7317    0.0000 C    0  0  0  0  0  0  0  0  0  0  0  0
    0.7345    0.3192    0.0000 C    0  0  0  0  0  0  0  0  0  0  0  0
    1.4490    0.7317    0.0000 C    0  0  0  0  0  0  0  0  0  0  0  0
   -0.6944   -2.1558    0.0000 C    0  0  0  0  0  0  0  0  0  0  0  0
   -1.4089   -1.7433    0.0000 C    0  0  0  0  0  0  0  0  0  0  0  0
   -1.4089   -0.9183    0.0000 C    0  0  0  0  0  0  0  0  0  0  0  0
   -0.6944   -0.5058    0.0000 C    0  0  0  0  0  0  0  0  0  0  0  0
    0.0201   -1.7433    0.0000 C    0  0  0  0  0  0  0  0  0  0  0  0
    0.0201   -0.9183    0.0000 C    0  0  0  0  0  0  0  0  0  0  0  0
   -0.6944    0.3192    0.0000 O    0  0  0  0  0  0  0  0  0  0  0  0
    2.1635    1.9692    0.0000 Cl   0  0  0  0  0  0  0  0  0  0  0  0
   -0.6944   -2.9808    0.0000 Cl   0  0  0  0  0  0  0  0  0  0  0  0
   -2.1234   -0.5058    0.0000 Cl   0  0  0  0  0  0  0  0  0  0  0  0
   -0.6944    1.9692    0.0000 O    0  0  0  0  0  0  0  0  0  0  0  0
  1  2  2  0  0  0  0
  1  3  1  0  0  0  0
  2  6  1  0  0  0  0
  2 14  1  0  0  0  0
  3  4  2  0  0  0  0
  3 17  1  0  0  0  0
  4  5  1  0  0  0  0
  4 13  1  0  0  0  0
  5  6  2  0  0  0  0
  7  8  2  0  0  0  0
  7 11  1  0  0  0  0
  7 15  1  0  0  0  0
  8  9  1  0  0  0  0
  9 10  2  0  0  0  0
  9 16  1  0  0  0  0
 10 12  1  0  0  0  0
 10 13  1  0  0  0  0
 11 12  2  0  0  0  0
M  END
> <DRUGBANK_ID>
DB08604

> <DRUG_GROUPS>
experimental

> <GENERIC_NAME>
TRICLOSAN

> <CHEMICAL_FORMULA>
C12H7Cl3O2

> <MOLECULAR_WEIGHT>
289.542

> <EXACT_MASS>
287.951162589

> <IUPAC_NAME>
5-chloro-2-(2,4-dichlorophenoxy)phenol

> <INCHI_IDENTIFIER>
InChI=1S/C12H7Cl3O2/c13-7-1-3-11(9(15)5-7)17-12-4-2-8(14)6-10(12)16/h1-6,16H

> <INCHI_KEY>
InChIKey=XEFQLINVKFYRCS-UHFFFAOYSA-N

> <SMILES>
OC1=C(OC2=C(Cl)C=C(Cl)C=C2)C=CC(Cl)=C1

> <JCHEM_ACCEPTOR_COUNT>
1

> <JCHEM_DONOR_COUNT>
1

> <JCHEM_ACIDIC_PKA>
7.68

> <JCHEM_BASIC_PKA>
-6.7

> <JCHEM_PHYSIOLOGICAL_CHARGE>
0

> <ALOGPS_LOGP>
5.53

> <JCHEM_LOGP>
4.98

> <ALOGPS_LOGS>
-4.7

> <JCHEM_POLARIZABILITY>
26

> <JCHEM_POLAR_SURFACE_AREA>
29.46

> <JCHEM_REFRACTIVITY>
68.69

> <JCHEM_ROTATABLE_BOND_COUNT>
2

> <ALOGPS_SOLUBILITY>
6.05e-03 g/l __ __ 

$$$$
